*Heading
** Ball-drop impact on a 100 x 100 x 2 mm coupon, 8 plies, contact-based
** cohesive between them, generated by make_impact_wave_inp.py. Impact stage only.
** In-plane 1.25 mm: set by ten elements per A0 wavelength at 100 kHz, which
** is the rule the validated wave models use, so one mesh serves both stages.
*Preprint, echo=NO, model=NO, history=NO, contact=NO
*Node
1, 0, 0, 0
2, 0.00125, 0, 0
3, 0.0025, 0, 0
4, 0.00375, 0, 0
5, 0.005, 0, 0
6, 0.00625, 0, 0
7, 0.0075, 0, 0
8, 0.00875, 0, 0
9, 0.01, 0, 0
10, 0.01125, 0, 0
11, 0.0125, 0, 0
12, 0.01375, 0, 0
13, 0.015, 0, 0
14, 0.01625, 0, 0
15, 0.0175, 0, 0
16, 0.01875, 0, 0
17, 0.02, 0, 0
18, 0.02125, 0, 0
19, 0.0225, 0, 0
20, 0.02375, 0, 0
** ... 115639 like lines cut
** solid elements, one per ply
*Element, type=C3D8
1, 1, 2, 83, 82, 6562, 6563, 6644, 6643
2, 2, 3, 84, 83, 6563, 6564, 6645, 6644
3, 3, 4, 85, 84, 6564, 6565, 6646, 6645
4, 4, 5, 86, 85, 6565, 6566, 6647, 6646
5, 5, 6, 87, 86, 6566, 6567, 6648, 6647
6, 6, 7, 88, 87, 6567, 6568, 6649, 6648
7, 7, 8, 89, 88, 6568, 6569, 6650, 6649
8, 8, 9, 90, 89, 6569, 6570, 6651, 6650
9, 9, 10, 91, 90, 6570, 6571, 6652, 6651
10, 10, 11, 92, 91, 6571, 6572, 6653, 6652
11, 11, 12, 93, 92, 6572, 6573, 6654, 6653
12, 12, 13, 94, 93, 6573, 6574, 6655, 6654
13, 13, 14, 95, 94, 6574, 6575, 6656, 6655
14, 14, 15, 96, 95, 6575, 6576, 6657, 6656
15, 15, 16, 97, 96, 6576, 6577, 6658, 6657
16, 16, 17, 98, 97, 6577, 6578, 6659, 6658
17, 17, 18, 99, 98, 6578, 6579, 6660, 6659
18, 18, 19, 100, 99, 6579, 6580, 6661, 6660
19, 19, 20, 101, 100, 6580, 6581, 6662, 6661
20, 20, 21, 102, 101, 6581, 6582, 6663, 6662
** ... 51180 like lines cut
** rigid facets of the ball
*Element, type=R3D4
51321, 104978, 104979, 105099, 105098
51322, 104979, 104980, 105100, 105099
51323, 104980, 104981, 105101, 105100
51324, 104981, 104982, 105102, 105101
51325, 104982, 104983, 105103, 105102
51326, 104983, 104984, 105104, 105103
51327, 104984, 104985, 105105, 105104
51328, 104985, 104986, 105106, 105105
51329, 104986, 104987, 105107, 105106
51330, 104987, 104988, 105108, 105107
51331, 104988, 104989, 105109, 105108
51332, 104989, 104990, 105110, 105109
51333, 104990, 104991, 105111, 105110
51334, 104991, 104992, 105112, 105111
51335, 104992, 104993, 105113, 105112
51336, 104993, 104994, 105114, 105113
51337, 104994, 104995, 105115, 105114
51338, 104995, 104996, 105116, 105115
51339, 104996, 104997, 105117, 105116
51340, 104997, 104998, 105118, 105117
** ... 10540 like lines cut
*Element, type=R3D3
51201, 104977, 104979, 104978
51202, 104977, 104980, 104979
51203, 104977, 104981, 104980
51204, 104977, 104982, 104981
51205, 104977, 104983, 104982
51206, 104977, 104984, 104983
51207, 104977, 104985, 104984
51208, 104977, 104986, 104985
51209, 104977, 104987, 104986
51210, 104977, 104988, 104987
51211, 104977, 104989, 104988
51212, 104977, 104990, 104989
51213, 104977, 104991, 104990
51214, 104977, 104992, 104991
51215, 104977, 104993, 104992
51216, 104977, 104994, 104993
51217, 104977, 104995, 104994
51218, 104977, 104996, 104995
51219, 104977, 104997, 104996
51220, 104977, 104998, 104997
** ... 220 like lines cut
*Element, type=MASS
62001, 115659
*Element, type=ROTARYI
62002, 115659
*Elset, elset=BALLMASS
62001,
*Elset, elset=BALLINERTIA
62002,
*Elset, elset=PLIES, generate
1, 51200, 1
*Elset, elset=LAYER1, generate
1, 6400, 1
*Elset, elset=LAYER2, generate
6401, 12800, 1
*Elset, elset=LAYER3, generate
12801, 19200, 1
*Elset, elset=LAYER4, generate
19201, 25600, 1
*Elset, elset=LAYER5, generate
25601, 32000, 1
*Elset, elset=LAYER6, generate
32001, 38400, 1
*Elset, elset=LAYER7, generate
38401, 44800, 1
*Elset, elset=LAYER8, generate
44801, 51200, 1
*Surface, type=ELEMENT, name=IFACE1_LOWER
LAYER1, S2
*Surface, type=ELEMENT, name=IFACE1_UPPER
LAYER2, S1
*Surface, type=ELEMENT, name=IFACE2_LOWER
LAYER2, S2
*Surface, type=ELEMENT, name=IFACE2_UPPER
LAYER3, S1
*Surface, type=ELEMENT, name=IFACE3_LOWER
LAYER3, S2
*Surface, type=ELEMENT, name=IFACE3_UPPER
LAYER4, S1
*Surface, type=ELEMENT, name=IFACE4_LOWER
LAYER4, S2
*Surface, type=ELEMENT, name=IFACE4_UPPER
LAYER5, S1
*Surface, type=ELEMENT, name=IFACE5_LOWER
LAYER5, S2
*Surface, type=ELEMENT, name=IFACE5_UPPER
LAYER6, S1
*Surface, type=ELEMENT, name=IFACE6_LOWER
LAYER6, S2
*Surface, type=ELEMENT, name=IFACE6_UPPER
LAYER7, S1
*Surface, type=ELEMENT, name=IFACE7_LOWER
LAYER7, S2
*Surface, type=ELEMENT, name=IFACE7_UPPER
LAYER8, S1
*Elset, elset=BALL, generate
51201, 62000, 1
*Rigid Body, ref node=115659, elset=BALL
*Nset, nset=FRAME
1, 2, 3, 4, 5, 6, 7, 8, 9, 10, 11, 12, 13, 14, 15, 16,
17, 18, 19, 20, 21, 22, 23, 24, 25, 26, 27, 28, 29, 30, 31, 32,
33, 34, 35, 36, 37, 38, 39, 40, 41, 42, 43, 44, 45, 46, 47, 48,
49, 50, 51, 52, 53, 54, 55, 56, 57, 58, 59, 60, 61, 62, 63, 64,
65, 66, 67, 68, 69, 70, 71, 72, 73, 74, 75, 76, 77, 78, 79, 80,
81, 82, 83, 84, 85, 86, 87, 88, 89, 90, 91, 92, 93, 94, 95, 96,
97, 98, 99, 100, 101, 102, 103, 104, 105, 106, 107, 108, 109, 110, 111, 112,
113, 114, 115, 116, 117, 118, 119, 120, 121, 122, 123, 124, 125, 126, 127, 128,
129, 130, 131, 132, 133, 134, 135, 136, 137, 138, 139, 140, 141, 142, 143, 144,
145, 146, 147, 148, 149, 150, 151, 152, 153, 154, 155, 156, 157, 158, 159, 160,
161, 162, 163, 164, 165, 166, 167, 168, 169, 170, 171, 172, 173, 174, 175, 176,
177, 178, 179, 180, 181, 182, 183, 184, 185, 186, 187, 188, 189, 190, 191, 192,
193, 194, 195, 196, 197, 198, 199, 200, 201, 202, 203, 204, 205, 206, 207, 208,
209, 210, 211, 212, 213, 214, 215, 216, 217, 218, 219, 220, 221, 222, 223, 224,
225, 226, 227, 228, 229, 230, 231, 232, 233, 234, 235, 236, 237, 238, 239, 240,
241, 242, 243, 244, 245, 246, 247, 248, 249, 250, 251, 252, 253, 254, 255, 256,
257, 258, 259, 260, 261, 262, 263, 264, 265, 266, 267, 268, 269, 270, 271, 272,
273, 274, 275, 276, 277, 278, 279, 280, 281, 282, 283, 284, 285, 286, 287, 288,
289, 290, 291, 292, 293, 294, 295, 296, 297, 298, 299, 300, 301, 302, 303, 304,
305, 306, 307, 308, 309, 310, 311, 312, 313, 314, 315, 316, 317, 318, 319, 320,
** ... 2316 like lines cut
*Nset, nset=BALLREF
115659,
*Nset, nset=TOPCENTRE
101696,
*Orientation, name=Fibre
1., 0., 0., 0., 1., 0.
3, 0.
*Section Controls, name=SC, max degradation=1.0
*Solid Section, elset=PLIES, material=PLY, orientation=Fibre, controls=SC
,
*Material, name=PLY
*Density
1650.0,
*Elastic, type=ENGINEERING CONSTANTS
1.281e11, 8.2e9, 8.2e9, 0.27, 0.27, 0.20, 4.7e9, 4.7e9
3.44e9,
** Diagnostic only: the failure index locates intralaminar failure but,
** as check_damage_degradation.py shows, it does not degrade a solid
** element. The stiffness reduction comes from the cohesive interfaces.
*Damage Initiation, criterion=MAX STRESS
1.5e9, 1.2e9, 5.0e7, 2.0e8, 5.0e7, 2.0e8, 7.0e7, 7.0e7,
5.0e7
*Damage Evolution, type=ENERGY
9.16e4
** Interface: contact-based cohesive behaviour. There is no cohesive
** element and therefore no cohesive material; the traction-separation
** law, its initiation criterion and its evolution all live on the
** surface interaction. Omitting the data line on *COHESIVE BEHAVIOR
** means the default penalty stiffness is used, so none has to be invented.
*Surface Interaction, name=DELAM
*Cohesive Behavior
*Damage Initiation, criterion=QUADS
30e6, 30e6, 30e6
*Damage Evolution, type=ENERGY, mixed mode behavior=BK, power=2
1.0e3, 1.0e3, 1.0e3
*Mass, elset=BALLMASS
3.967622e-03,
** Rotational inertia of a solid sphere, 2/5 m r^2. A central impact does
** not spin the ball; the value is here so the rigid body is well posed.
*Rotary Inertia, elset=BALLINERTIA
2.539278e-08, 2.539278e-08, 2.539278e-08
*Initial Conditions, type=VELOCITY
115659, 3, -1.771476e+00
*Surface Interaction, name=FRIC
*Friction
0.3,
*Contact, op=NEW
*Contact Inclusions, ALL EXTERIOR
** The blanket friction assignment comes first and the interface pairs
** after it, because a later assignment takes precedence over an earlier
** one for the same pair.
*Contact Property Assignment
 ,  , FRIC
IFACE1_UPPER, IFACE1_LOWER, DELAM
IFACE2_UPPER, IFACE2_LOWER, DELAM
IFACE3_UPPER, IFACE3_LOWER, DELAM
IFACE4_UPPER, IFACE4_LOWER, DELAM
IFACE5_UPPER, IFACE5_LOWER, DELAM
IFACE6_UPPER, IFACE6_LOWER, DELAM
IFACE7_UPPER, IFACE7_LOWER, DELAM
*Step, name=IMPACT, nlgeom=NO
*Dynamic, Explicit
, 0.0003
*Bulk Viscosity
0.06, 1.2
*Boundary
FRAME, ENCASTRE
*Output, field, number interval=50
*Node Output
U, V
*Element Output
S, SDEG
*Contact Output
** CSDMG is the interface damage variable for contact-based cohesive
** behaviour; it is to the surface what SDEG is to a cohesive element, and
** it is the variable the interface damage area is read from.
CSTRESS, CDISP, CSDMG
*Output, history, time interval=5e-07
*Node Output, nset=BALLREF
V3
*Node Output, nset=TOPCENTRE
U3
*Energy Output
ALLKE, ALLIE, ALLSE, ALLAE, ALLDMD, ALLPD, ALLWK, ETOTAL
*End Step
