*Heading
** Ball-drop impact on a 100 x 100 x 2 mm coupon, 8 plies, contact-based cohesive between
** them, generated by make_impact_wave_inp.py.
** In-plane 4.40531 mm at the edges: set by ten elements per A0 wavelength at
** 100 kHz, the rule the validated wave models use, so one mesh serves both
** stages. In-plane 1.5 mm at the centre, where the ball contacts.
*Preprint, echo=NO, model=NO, history=NO, contact=NO
*Node
1, 0, 0, 0
2, 0.004405310595, 0, 0
3, 0.008810621189, 0, 0
4, 0.01321593178, 0, 0
5, 0.01792357435, 0, 0
6, 0.02220324941, 0, 0
7, 0.0260938631, 0, 0
8, 0.02963078463, 0, 0
9, 0.03284616785, 0, 0
10, 0.0357692435, 0, 0
11, 0.038426585, 0, 0
12, 0.04084235, 0, 0
13, 0.0430385, 0, 0
14, 0.045035, 0, 0
15, 0.04685, 0, 0
16, 0.0485, 0, 0
17, 0.05, 0, 0
18, 0.0515, 0, 0
19, 0.05315, 0, 0
20, 0.054965, 0, 0
** ... 53431 like lines cut
** solid elements, one per ply
*Element, type=C3D8
1, 1, 2, 35, 34, 2674, 2675, 2708, 2707
2, 2, 3, 36, 35, 2675, 2676, 2709, 2708
3, 3, 4, 37, 36, 2676, 2677, 2710, 2709
4, 4, 5, 38, 37, 2677, 2678, 2711, 2710
5, 5, 6, 39, 38, 2678, 2679, 2712, 2711
6, 6, 7, 40, 39, 2679, 2680, 2713, 2712
7, 7, 8, 41, 40, 2680, 2681, 2714, 2713
8, 8, 9, 42, 41, 2681, 2682, 2715, 2714
9, 9, 10, 43, 42, 2682, 2683, 2716, 2715
10, 10, 11, 44, 43, 2683, 2684, 2717, 2716
11, 11, 12, 45, 44, 2684, 2685, 2718, 2717
12, 12, 13, 46, 45, 2685, 2686, 2719, 2718
13, 13, 14, 47, 46, 2686, 2687, 2720, 2719
14, 14, 15, 48, 47, 2687, 2688, 2721, 2720
15, 15, 16, 49, 48, 2688, 2689, 2722, 2721
16, 16, 17, 50, 49, 2689, 2690, 2723, 2722
17, 17, 18, 51, 50, 2690, 2691, 2724, 2723
18, 18, 19, 52, 51, 2691, 2692, 2725, 2724
19, 19, 20, 53, 52, 2692, 2693, 2726, 2725
20, 20, 21, 54, 53, 2693, 2694, 2727, 2726
** ... 20460 like lines cut
** rigid facets of the ball
*Element, type=R3D4
20601, 42770, 42771, 42891, 42890
20602, 42771, 42772, 42892, 42891
20603, 42772, 42773, 42893, 42892
20604, 42773, 42774, 42894, 42893
20605, 42774, 42775, 42895, 42894
20606, 42775, 42776, 42896, 42895
20607, 42776, 42777, 42897, 42896
20608, 42777, 42778, 42898, 42897
20609, 42778, 42779, 42899, 42898
20610, 42779, 42780, 42900, 42899
20611, 42780, 42781, 42901, 42900
20612, 42781, 42782, 42902, 42901
20613, 42782, 42783, 42903, 42902
20614, 42783, 42784, 42904, 42903
20615, 42784, 42785, 42905, 42904
20616, 42785, 42786, 42906, 42905
20617, 42786, 42787, 42907, 42906
20618, 42787, 42788, 42908, 42907
20619, 42788, 42789, 42909, 42908
20620, 42789, 42790, 42910, 42909
** ... 10540 like lines cut
*Element, type=R3D3
20481, 42769, 42771, 42770
20482, 42769, 42772, 42771
20483, 42769, 42773, 42772
20484, 42769, 42774, 42773
20485, 42769, 42775, 42774
20486, 42769, 42776, 42775
20487, 42769, 42777, 42776
20488, 42769, 42778, 42777
20489, 42769, 42779, 42778
20490, 42769, 42780, 42779
20491, 42769, 42781, 42780
20492, 42769, 42782, 42781
20493, 42769, 42783, 42782
20494, 42769, 42784, 42783
20495, 42769, 42785, 42784
20496, 42769, 42786, 42785
20497, 42769, 42787, 42786
20498, 42769, 42788, 42787
20499, 42769, 42789, 42788
20500, 42769, 42790, 42789
** ... 220 like lines cut
*Element, type=MASS
31281, 53451
*Element, type=ROTARYI
31282, 53451
*Elset, elset=BALLMASS
31281,
*Elset, elset=BALLINERTIA
31282,
*Elset, elset=PLIES, generate
1, 20480, 1
*Elset, elset=LAYER1, generate
1, 2560, 1
*Elset, elset=LAYER2, generate
2561, 5120, 1
*Elset, elset=LAYER3, generate
5121, 7680, 1
*Elset, elset=LAYER4, generate
7681, 10240, 1
*Elset, elset=LAYER5, generate
10241, 12800, 1
*Elset, elset=LAYER6, generate
12801, 15360, 1
*Elset, elset=LAYER7, generate
15361, 17920, 1
*Elset, elset=LAYER8, generate
17921, 20480, 1
*Surface, type=ELEMENT, name=TOP
LAYER8, S2
*Surface, type=ELEMENT, name=IFACE1_LOWER
LAYER1, S2
*Surface, type=ELEMENT, name=IFACE1_UPPER
LAYER2, S1
*Surface, type=ELEMENT, name=IFACE2_LOWER
LAYER2, S2
*Surface, type=ELEMENT, name=IFACE2_UPPER
LAYER3, S1
*Surface, type=ELEMENT, name=IFACE3_LOWER
LAYER3, S2
*Surface, type=ELEMENT, name=IFACE3_UPPER
LAYER4, S1
*Surface, type=ELEMENT, name=IFACE4_LOWER
LAYER4, S2
*Surface, type=ELEMENT, name=IFACE4_UPPER
LAYER5, S1
*Surface, type=ELEMENT, name=IFACE5_LOWER
LAYER5, S2
*Surface, type=ELEMENT, name=IFACE5_UPPER
LAYER6, S1
*Surface, type=ELEMENT, name=IFACE6_LOWER
LAYER6, S2
*Surface, type=ELEMENT, name=IFACE6_UPPER
LAYER7, S1
*Surface, type=ELEMENT, name=IFACE7_LOWER
LAYER7, S2
*Surface, type=ELEMENT, name=IFACE7_UPPER
LAYER8, S1
*Elset, elset=BALL, generate
20481, 31280, 1
*Surface, type=ELEMENT, name=BALLFACETS
BALL
*Rigid Body, ref node=53451, elset=BALL
*Nset, nset=SENSOR_ACT
41422,
*Elset, elset=SENSOR_ACT
19207,
*Nset, nset=SENSOR_R1
41439,
*Elset, elset=SENSOR_R1
19224,
*Nset, nset=SENSOR_R2
41444,
*Elset, elset=SENSOR_R2
19229,
*Nset, nset=SENSOR_R3
40772,
*Elset, elset=SENSOR_R3
18577,
*Nset, nset=SENSOR_R4
42092,
*Elset, elset=SENSOR_R4
19857,
*Nset, nset=SENSOR_R5
40782,
*Elset, elset=SENSOR_R5
18587,
*Nset, nset=SENSOR_R6
42102,
*Elset, elset=SENSOR_R6
19867,
*Nset, nset=SENSOR_R7
40762,
*Elset, elset=SENSOR_R7
18567,
*Nset, nset=SENSOR_R8
42082,
*Elset, elset=SENSOR_R8
19847,
*Elset, elset=PATCH
19142, 19174, 19175, 19206, 19207, 19238,
*Surface, type=ELEMENT, name=PATCH
PATCH, S2
*Nset, nset=FRAME
1, 2, 3, 4, 5, 6, 7, 8, 9, 10, 11, 12, 13, 14, 15, 16,
17, 18, 19, 20, 21, 22, 23, 24, 25, 26, 27, 28, 29, 30, 31, 32,
33, 34, 35, 36, 37, 38, 39, 40, 41, 42, 43, 44, 45, 46, 47, 48,
49, 50, 51, 52, 53, 54, 55, 56, 57, 58, 59, 60, 61, 62, 63, 64,
65, 66, 67, 68, 98, 99, 100, 101, 131, 132, 133, 134, 164, 165, 166, 167,
197, 198, 199, 200, 230, 231, 232, 233, 263, 264, 265, 266, 296, 297, 298, 299,
329, 330, 331, 332, 362, 363, 364, 365, 395, 396, 397, 398, 428, 429, 430, 431,
461, 462, 463, 464, 494, 495, 496, 497, 527, 528, 529, 530, 560, 561, 562, 563,
593, 594, 595, 596, 626, 627, 628, 629, 659, 660, 661, 662, 692, 693, 694, 695,
725, 726, 727, 728, 758, 759, 760, 761, 791, 792, 793, 794, 824, 825, 826, 827,
857, 858, 859, 860, 890, 891, 892, 893, 923, 924, 925, 926, 956, 957, 958, 959,
989, 990, 991, 992, 1022, 1023, 1024, 1025, 1055, 1056, 1057, 1058, 1088, 1089, 1090, 1091,
1121, 1122, 1123, 1124, 1154, 1155, 1156, 1157, 1187, 1188, 1189, 1190, 1220, 1221, 1222, 1223,
1253, 1254, 1255, 1256, 1286, 1287, 1288, 1289, 1319, 1320, 1321, 1322, 1352, 1353, 1354, 1355,
1385, 1386, 1387, 1388, 1418, 1419, 1420, 1421, 1451, 1452, 1453, 1454, 1484, 1485, 1486, 1487,
1517, 1518, 1519, 1520, 1550, 1551, 1552, 1553, 1583, 1584, 1585, 1586, 1616, 1617, 1618, 1619,
1649, 1650, 1651, 1652, 1682, 1683, 1684, 1685, 1715, 1716, 1717, 1718, 1748, 1749, 1750, 1751,
1781, 1782, 1783, 1784, 1814, 1815, 1816, 1817, 1847, 1848, 1849, 1850, 1880, 1881, 1882, 1883,
1913, 1914, 1915, 1916, 1946, 1947, 1948, 1949, 1979, 1980, 1981, 1982, 2012, 2013, 2014, 2015,
2045, 2046, 2047, 2048, 2078, 2079, 2080, 2081, 2111, 2112, 2113, 2114, 2144, 2145, 2146, 2147,
** ... 420 like lines cut
*Nset, nset=BALLREF
53451,
*Nset, nset=TOPCENTRE
41432,
*Orientation, name=Fibre
1., 0., 0., 0., 1., 0.
3, 0.
*Section Controls, name=SC, max degradation=1.0
*Solid Section, elset=PLIES, material=PLY, orientation=Fibre, controls=SC
,
*Material, name=PLY
*Density
1650.0,
*Elastic, type=ENGINEERING CONSTANTS
1.281e11, 8.2e9, 8.2e9, 0.27, 0.27, 0.20, 4.7e9, 4.7e9
3.44e9,
** Diagnostic only: the failure index locates intralaminar failure but,
** as check_damage_degradation.py shows, it does not degrade a solid
** element. The stiffness reduction comes from the cohesive interfaces.
*Damage Initiation, criterion=MAX STRESS
1.5e9, 1.2e9, 5.0e7, 2.0e8, 5.0e7, 2.0e8, 7.0e7, 7.0e7,
5.0e7
*Damage Evolution, type=ENERGY
9.16e4
** Interface: contact-based cohesive behaviour. There is no cohesive
** element and therefore no cohesive material; the traction-separation
** law, its initiation criterion and its evolution all live on the
** surface interaction. Omitting the data line on *COHESIVE BEHAVIOR
** means the default penalty stiffness is used, so none has to be invented.
*Surface Interaction, name=DELAM
*Cohesive Behavior
*Damage Initiation, criterion=QUADS
59.5e6, 59.5e6, 59.5e6
*Damage Evolution, type=ENERGY, mixed mode behavior=BK, power=2.284
490.0, 1060.0, 1060.0
*Mass, elset=BALLMASS
3.967622e-03,
** Rotational inertia of a solid sphere, 2/5 m r^2. A central impact
** does not spin the ball; the value is here so the rigid body is well
** posed.
*Rotary Inertia, elset=BALLINERTIA
2.539278e-08, 2.539278e-08, 2.539278e-08
*Initial Conditions, type=VELOCITY
53451, 3, -1.229630e+01
*Surface Interaction, name=FRIC
*Friction
0.3,
*Contact, op=NEW
*Contact Inclusions
IFACE1_LOWER, IFACE1_UPPER
IFACE2_LOWER, IFACE2_UPPER
IFACE3_LOWER, IFACE3_UPPER
IFACE4_LOWER, IFACE4_UPPER
IFACE5_LOWER, IFACE5_UPPER
IFACE6_LOWER, IFACE6_UPPER
IFACE7_LOWER, IFACE7_UPPER
TOP, BALLFACETS
** The blanket friction assignment comes first and the interface pairs
** after it, because a later assignment takes precedence over an earlier
** one for the same pair.
*Contact Property Assignment
 ,  , FRIC
IFACE1_UPPER, IFACE1_LOWER, DELAM
IFACE2_UPPER, IFACE2_LOWER, DELAM
IFACE3_UPPER, IFACE3_LOWER, DELAM
IFACE4_UPPER, IFACE4_LOWER, DELAM
IFACE5_UPPER, IFACE5_LOWER, DELAM
IFACE6_UPPER, IFACE6_LOWER, DELAM
IFACE7_UPPER, IFACE7_LOWER, DELAM
*Amplitude, name=BURST, time=STEP TIME
0, 0
5e-07, 0.0003048872
1e-06, 0.002317431
1.5e-06, 0.007164958
2e-06, 0.01493959
2.5e-06, 0.02447174
3e-06, 0.03339327
3.5e-06, 0.03849827
4e-06, 0.03635255
4.5e-06, 0.02405266
5e-06, 1.169434e-17
5.5e-06, -0.03545765
6e-06, -0.07965412
6.5e-06, -0.1276034
7e-06, -0.1724151
7.5e-06, -0.2061074
8e-06, -0.2207275
8.5e-06, -0.209635
9e-06, -0.1687592
9.5e-06, -0.09763013
** ... 81 like lines cut
*Step, name=IMPACT, nlgeom=NO
*Dynamic, Explicit
, 0.00012
*Bulk Viscosity
0.06, 1.2
*Boundary
FRAME, ENCASTRE
*Output, field, number interval=6
*Node Output
U, V
*Element Output
S, SDEG
*Contact Output
** CSDMG is the interface damage variable for contact-based cohesive
** behaviour; it is to the surface what SDEG is to a cohesive element,
** and it is the variable the interface damage area is read from.
CSTRESS, CDISP, CSDMG
*Output, history, time interval=5e-07
*Node Output, nset=BALLREF
V3
*Node Output, nset=TOPCENTRE
U3
*Energy Output
ALLKE, ALLIE, ALLSE, ALLAE, ALLDMD, ALLPD, ALLWK, ETOTAL
*End Step
*Step, name=WAVE, nlgeom=NO
*Dynamic, Explicit
, 0.00025
*Bulk Viscosity
0.06, 1.2
*Boundary
FRAME, ENCASTRE
*Dsload, op=NEW, amplitude=BURST
PATCH, P, 3.534147e+05
*Output, field, number interval=25
*Node Output
U, V
*Output, history, time interval=5e-07
*Node Output, nset=SENSOR_ACT
U3, V3
*Element Output, elset=SENSOR_ACT
E11, E22, E12
*Node Output, nset=SENSOR_R1
U3, V3
*Element Output, elset=SENSOR_R1
E11, E22, E12
*Node Output, nset=SENSOR_R2
U3, V3
*Element Output, elset=SENSOR_R2
E11, E22, E12
*Node Output, nset=SENSOR_R3
U3, V3
*Element Output, elset=SENSOR_R3
E11, E22, E12
*Node Output, nset=SENSOR_R4
U3, V3
*Element Output, elset=SENSOR_R4
E11, E22, E12
*Node Output, nset=SENSOR_R5
U3, V3
*Element Output, elset=SENSOR_R5
E11, E22, E12
*Node Output, nset=SENSOR_R6
U3, V3
*Element Output, elset=SENSOR_R6
E11, E22, E12
*Node Output, nset=SENSOR_R7
U3, V3
*Element Output, elset=SENSOR_R7
E11, E22, E12
*Node Output, nset=SENSOR_R8
U3, V3
*Element Output, elset=SENSOR_R8
E11, E22, E12
*Energy Output
ALLKE, ALLIE, ALLSE, ALLAE, ALLDMD, ALLPD, ALLWK, ETOTAL
*End Step
