*Heading
** Ball-drop impact on a 100 x 100 x 2 mm coupon, 2 plies, cohesive between
** them, generated by make_impact_wave_inp.py. Impact stage only.
** In-plane 25 mm: set by ten elements per A0 wavelength at 100 kHz, which
** is the rule the validated wave models use, so one mesh serves both stages.
*Preprint, echo=NO, model=NO, history=NO, contact=NO
*Node
1, 0, 0, 0
2, 0.025, 0, 0
3, 0.05, 0, 0
4, 0.075, 0, 0
5, 0.1, 0, 0
6, 0, 0.025, 0
7, 0.025, 0.025, 0
8, 0.05, 0.025, 0
9, 0.075, 0.025, 0
10, 0.1, 0.025, 0
11, 0, 0.05, 0
12, 0.025, 0.05, 0
13, 0.05, 0.05, 0
14, 0.075, 0.05, 0
15, 0.1, 0.05, 0
16, 0, 0.075, 0
17, 0.025, 0.075, 0
18, 0.05, 0.075, 0
19, 0.075, 0.075, 0
20, 0.1, 0.075, 0
** ... 10763 like lines cut
** solid elements, one per ply
*Element, type=C3D8
1, 1, 2, 7, 6, 26, 27, 32, 31
2, 2, 3, 8, 7, 27, 28, 33, 32
3, 3, 4, 9, 8, 28, 29, 34, 33
4, 4, 5, 10, 9, 29, 30, 35, 34
5, 6, 7, 12, 11, 31, 32, 37, 36
6, 7, 8, 13, 12, 32, 33, 38, 37
7, 8, 9, 14, 13, 33, 34, 39, 38
8, 9, 10, 15, 14, 34, 35, 40, 39
9, 11, 12, 17, 16, 36, 37, 42, 41
10, 12, 13, 18, 17, 37, 38, 43, 42
11, 13, 14, 19, 18, 38, 39, 44, 43
12, 14, 15, 20, 19, 39, 40, 45, 44
13, 16, 17, 22, 21, 41, 42, 47, 46
14, 17, 18, 23, 22, 42, 43, 48, 47
15, 18, 19, 24, 23, 43, 44, 49, 48
16, 19, 20, 25, 24, 44, 45, 50, 49
17, 51, 52, 57, 56, 76, 77, 82, 81
18, 52, 53, 58, 57, 77, 78, 83, 82
19, 53, 54, 59, 58, 78, 79, 84, 83
20, 54, 55, 60, 59, 79, 80, 85, 84
** ... 12 like lines cut
** zero-thickness cohesive elements at each ply boundary
*Element, type=COH3D8
33, 26, 27, 32, 31, 51, 52, 57, 56
34, 27, 28, 33, 32, 52, 53, 58, 57
35, 28, 29, 34, 33, 53, 54, 59, 58
36, 29, 30, 35, 34, 54, 55, 60, 59
37, 31, 32, 37, 36, 56, 57, 62, 61
38, 32, 33, 38, 37, 57, 58, 63, 62
39, 33, 34, 39, 38, 58, 59, 64, 63
40, 34, 35, 40, 39, 59, 60, 65, 64
41, 36, 37, 42, 41, 61, 62, 67, 66
42, 37, 38, 43, 42, 62, 63, 68, 67
43, 38, 39, 44, 43, 63, 64, 69, 68
44, 39, 40, 45, 44, 64, 65, 70, 69
45, 41, 42, 47, 46, 66, 67, 72, 71
46, 42, 43, 48, 47, 67, 68, 73, 72
47, 43, 44, 49, 48, 68, 69, 74, 73
48, 44, 45, 50, 49, 69, 70, 75, 74
** rigid facets of the ball
*Element, type=R3D4
169, 101, 102, 222, 221
170, 102, 103, 223, 222
171, 103, 104, 224, 223
172, 104, 105, 225, 224
173, 105, 106, 226, 225
174, 106, 107, 227, 226
175, 107, 108, 228, 227
176, 108, 109, 229, 228
177, 109, 110, 230, 229
178, 110, 111, 231, 230
179, 111, 112, 232, 231
180, 112, 113, 233, 232
181, 113, 114, 234, 233
182, 114, 115, 235, 234
183, 115, 116, 236, 235
184, 116, 117, 237, 236
185, 117, 118, 238, 237
186, 118, 119, 239, 238
187, 119, 120, 240, 239
188, 120, 121, 241, 240
** ... 10540 like lines cut
*Element, type=R3D3
49, 100, 102, 101
50, 100, 103, 102
51, 100, 104, 103
52, 100, 105, 104
53, 100, 106, 105
54, 100, 107, 106
55, 100, 108, 107
56, 100, 109, 108
57, 100, 110, 109
58, 100, 111, 110
59, 100, 112, 111
60, 100, 113, 112
61, 100, 114, 113
62, 100, 115, 114
63, 100, 116, 115
64, 100, 117, 116
65, 100, 118, 117
66, 100, 119, 118
67, 100, 120, 119
68, 100, 121, 120
** ... 220 like lines cut
*Element, type=MASS
10849, 10783
*Element, type=ROTARYI
10850, 10783
*Elset, elset=BALLMASS
10849,
*Elset, elset=BALLINERTIA
10850,
*Elset, elset=PLIES, generate
1, 32, 1
*Elset, elset=INTERFACES, generate
33, 48, 1
*Elset, elset=IFACE1
33, 34, 35, 36, 37, 38, 39, 40, 41, 42, 43, 44, 45, 46, 47, 48,
*Elset, elset=BALL, generate
49, 10848, 1
*Rigid Body, ref node=10783, elset=BALL
*Nset, nset=FRAME
1, 2, 3, 4, 5, 6, 10, 11, 15, 16, 20, 21, 22, 23, 24, 25,
26, 27, 28, 29, 30, 31, 35, 36, 40, 41, 45, 46, 47, 48, 49, 50,
51, 52, 53, 54, 55, 56, 60, 61, 65, 66, 70, 71, 72, 73, 74, 75,
76, 77, 78, 79, 80, 81, 85, 86, 90, 91, 95, 96, 97, 98, 99, 100,
*Nset, nset=BALLREF
10783,
*Nset, nset=TOPCENTRE
88,
*Orientation, name=Fibre
1., 0., 0., 0., 1., 0.
3, 0.
*Section Controls, name=SC, max degradation=1.0
*Solid Section, elset=PLIES, material=PLY, orientation=Fibre, controls=SC
,
*Cohesive Section, elset=INTERFACES, material=IFACE, response=TRACTION SEPARATION, controls=SC
1.0,
*Material, name=PLY
*Density
1650.0,
*Elastic, type=ENGINEERING CONSTANTS
1.281e11, 8.2e9, 8.2e9, 0.27, 0.27, 0.20, 4.7e9, 4.7e9
3.44e9,
** Diagnostic only: the failure index locates intralaminar failure but,
** as check_damage_degradation.py shows, it does not degrade a solid
** element. The stiffness reduction comes from the cohesive interfaces.
*Damage Initiation, criterion=MAX STRESS
1.5e9, 1.2e9, 5.0e7, 2.0e8, 5.0e7, 2.0e8, 7.0e7, 7.0e7,
5.0e7
*Damage Evolution, type=ENERGY
9.16e4
*Material, name=IFACE
*Density
1650.0,
*Elastic, type=TRACTION
1e+16, 1e+16, 1e+16
*Damage Initiation, criterion=QUADS
30e6, 30e6, 30e6
*Damage Evolution, type=ENERGY, mixed mode behavior=BK, power=2
1.0e3, 1.0e3, 1.0e3
*Mass, elset=BALLMASS
3.967622e-03,
** Rotational inertia of a solid sphere, 2/5 m r^2. A central impact does
** not spin the ball; the value is here so the rigid body is well posed.
*Rotary Inertia, elset=BALLINERTIA
2.539278e-08, 2.539278e-08, 2.539278e-08
*Initial Conditions, type=VELOCITY
10783, 3, 3, -1.771476e+00
*Surface Interaction, name=FRIC
*Friction
0.3,
*Contact, op=NEW
*Contact Inclusions, ALL EXTERIOR
*Contact Property Assignment
 ,  , FRIC
*Step, name=IMPACT, nlgeom=NO
*Dynamic, Explicit
, 2e-05
*Bulk Viscosity
0.06, 1.2
*Boundary
FRAME, ENCASTRE
*Output, field, number interval=50
*Node Output
U, V
*Element Output
S, SDEG
*Contact Output
CSTRESS
*Output, history, time interval=5e-07
*Node Output, nset=BALLREF
V3
*Node Output, nset=TOPCENTRE
U3
*Energy Output
ALLKE, ALLIE, ALLSE, ALLAE, ALLDMD, ALLPD, ALLWK, ETOTAL
*End Step
