*Heading
** Guided wave stage on a 100 x 100 x 2 mm coupon, 8 plies, contact-based cohesive between
** them, generated by make_impact_wave_inp.py.
** In-plane 1.26895 mm at the edges: set by ten elements per A0 wavelength at
** 100 kHz, the rule the validated wave models use, so one mesh serves both
** stages. In-plane 0.15 mm at the centre, where the ball contacts.
*Preprint, echo=NO, model=NO, history=NO, contact=NO
*Node
1, 4.163336342e-17, 4.163336342e-17, 0
2, 0.001268951545, 4.163336342e-17, 0
3, 0.00253790309, 4.163336342e-17, 0
4, 0.003806854635, 4.163336342e-17, 0
5, 0.00507580618, 4.163336342e-17, 0
6, 0.006344757725, 4.163336342e-17, 0
7, 0.00761370927, 4.163336342e-17, 0
8, 0.008882660815, 4.163336342e-17, 0
9, 0.01015161236, 4.163336342e-17, 0
10, 0.01142056391, 4.163336342e-17, 0
11, 0.01268951545, 4.163336342e-17, 0
12, 0.013958467, 4.163336342e-17, 0
13, 0.01522741854, 4.163336342e-17, 0
14, 0.01649637009, 4.163336342e-17, 0
15, 0.01776532163, 4.163336342e-17, 0
16, 0.01903427318, 4.163336342e-17, 0
17, 0.02030322472, 4.163336342e-17, 0
18, 0.02157217627, 4.163336342e-17, 0
19, 0.02284112781, 4.163336342e-17, 0
20, 0.02411007936, 4.163336342e-17, 0
** ... 183164 like lines cut
** solid elements, one per ply
*Element, type=C3D8
1, 1, 2, 109, 108, 11450, 11451, 11558, 11557
2, 2, 3, 110, 109, 11451, 11452, 11559, 11558
3, 3, 4, 111, 110, 11452, 11453, 11560, 11559
4, 4, 5, 112, 111, 11453, 11454, 11561, 11560
5, 5, 6, 113, 112, 11454, 11455, 11562, 11561
6, 6, 7, 114, 113, 11455, 11456, 11563, 11562
7, 7, 8, 115, 114, 11456, 11457, 11564, 11563
8, 8, 9, 116, 115, 11457, 11458, 11565, 11564
9, 9, 10, 117, 116, 11458, 11459, 11566, 11565
10, 10, 11, 118, 117, 11459, 11460, 11567, 11566
11, 11, 12, 119, 118, 11460, 11461, 11568, 11567
12, 12, 13, 120, 119, 11461, 11462, 11569, 11568
13, 13, 14, 121, 120, 11462, 11463, 11570, 11569
14, 14, 15, 122, 121, 11463, 11464, 11571, 11570
15, 15, 16, 123, 122, 11464, 11465, 11572, 11571
16, 16, 17, 124, 123, 11465, 11466, 11573, 11572
17, 17, 18, 125, 124, 11466, 11467, 11574, 11573
18, 18, 19, 126, 125, 11467, 11468, 11575, 11574
19, 19, 20, 127, 126, 11468, 11469, 11576, 11575
20, 20, 21, 128, 127, 11469, 11470, 11577, 11576
** ... 89868 like lines cut
*Elset, elset=PLIES, generate
1, 89888, 1
*Elset, elset=LAYER1, generate
1, 11236, 1
*Elset, elset=LAYER2, generate
11237, 22472, 1
*Elset, elset=LAYER3, generate
22473, 33708, 1
*Elset, elset=LAYER4, generate
33709, 44944, 1
*Elset, elset=LAYER5, generate
44945, 56180, 1
*Elset, elset=LAYER6, generate
56181, 67416, 1
*Elset, elset=LAYER7, generate
67417, 78652, 1
*Elset, elset=LAYER8, generate
78653, 89888, 1
*Surface, type=ELEMENT, name=TOP
LAYER8, S2
*Elset, elset=IFACE1_IN_LOWER
4396, 4397, 4398, 4399, 4400, 4401, 4402, 4403, 4498, 4499, 4500, 4501, 4502, 4503, 4504, 4505,
4506, 4507, 4508, 4509, 4510, 4511, 4512, 4513, 4603, 4604, 4605, 4606, 4607, 4608, 4609, 4610,
4611, 4612, 4613, 4614, 4615, 4616, 4617, 4618, 4619, 4620, 4708, 4709, 4710, 4711, 4712, 4713,
4714, 4715, 4716, 4717, 4718, 4719, 4720, 4721, 4722, 4723, 4724, 4725, 4726, 4727, 4813, 4814,
4815, 4816, 4817, 4818, 4819, 4820, 4821, 4822, 4823, 4824, 4825, 4826, 4827, 4828, 4829, 4830,
4831, 4832, 4833, 4834, 4919, 4920, 4921, 4922, 4923, 4924, 4925, 4926, 4927, 4928, 4929, 4930,
4931, 4932, 4933, 4934, 4935, 4936, 4937, 4938, 4939, 4940, 5025, 5026, 5027, 5028, 5029, 5030,
5031, 5032, 5033, 5034, 5035, 5036, 5037, 5038, 5039, 5040, 5041, 5042, 5043, 5044, 5045, 5046,
5131, 5132, 5133, 5134, 5135, 5136, 5137, 5138, 5139, 5140, 5141, 5142, 5143, 5144, 5145, 5146,
5147, 5148, 5149, 5150, 5151, 5152, 5236, 5237, 5238, 5239, 5240, 5241, 5242, 5243, 5244, 5245,
5246, 5247, 5248, 5249, 5250, 5251, 5252, 5253, 5254, 5255, 5256, 5257, 5258, 5259, 5342, 5343,
5344, 5345, 5346, 5347, 5348, 5349, 5350, 5351, 5352, 5353, 5354, 5355, 5356, 5357, 5358, 5359,
5360, 5361, 5362, 5363, 5364, 5365, 5448, 5449, 5450, 5451, 5452, 5453, 5454, 5455, 5456, 5457,
5458, 5459, 5460, 5461, 5462, 5463, 5464, 5465, 5466, 5467, 5468, 5469, 5470, 5471, 5554, 5555,
5556, 5557, 5558, 5559, 5560, 5561, 5562, 5563, 5564, 5565, 5566, 5567, 5568, 5569, 5570, 5571,
5572, 5573, 5574, 5575, 5576, 5577, 5660, 5661, 5662, 5663, 5664, 5665, 5666, 5667, 5668, 5669,
5670, 5671, 5672, 5673, 5674, 5675, 5676, 5677, 5678, 5679, 5680, 5681, 5682, 5683, 5766, 5767,
5768, 5769, 5770, 5771, 5772, 5773, 5774, 5775, 5776, 5777, 5778, 5779, 5780, 5781, 5782, 5783,
5784, 5785, 5786, 5787, 5788, 5789, 5872, 5873, 5874, 5875, 5876, 5877, 5878, 5879, 5880, 5881,
5882, 5883, 5884, 5885, 5886, 5887, 5888, 5889, 5890, 5891, 5892, 5893, 5894, 5895, 5978, 5979,
** ... 11 like lines cut
*Elset, elset=IFACE1_IN_UPPER
15632, 15633, 15634, 15635, 15636, 15637, 15638, 15639, 15734, 15735, 15736, 15737, 15738, 15739, 15740, 15741,
15742, 15743, 15744, 15745, 15746, 15747, 15748, 15749, 15839, 15840, 15841, 15842, 15843, 15844, 15845, 15846,
15847, 15848, 15849, 15850, 15851, 15852, 15853, 15854, 15855, 15856, 15944, 15945, 15946, 15947, 15948, 15949,
15950, 15951, 15952, 15953, 15954, 15955, 15956, 15957, 15958, 15959, 15960, 15961, 15962, 15963, 16049, 16050,
16051, 16052, 16053, 16054, 16055, 16056, 16057, 16058, 16059, 16060, 16061, 16062, 16063, 16064, 16065, 16066,
16067, 16068, 16069, 16070, 16155, 16156, 16157, 16158, 16159, 16160, 16161, 16162, 16163, 16164, 16165, 16166,
16167, 16168, 16169, 16170, 16171, 16172, 16173, 16174, 16175, 16176, 16261, 16262, 16263, 16264, 16265, 16266,
16267, 16268, 16269, 16270, 16271, 16272, 16273, 16274, 16275, 16276, 16277, 16278, 16279, 16280, 16281, 16282,
16367, 16368, 16369, 16370, 16371, 16372, 16373, 16374, 16375, 16376, 16377, 16378, 16379, 16380, 16381, 16382,
16383, 16384, 16385, 16386, 16387, 16388, 16472, 16473, 16474, 16475, 16476, 16477, 16478, 16479, 16480, 16481,
16482, 16483, 16484, 16485, 16486, 16487, 16488, 16489, 16490, 16491, 16492, 16493, 16494, 16495, 16578, 16579,
16580, 16581, 16582, 16583, 16584, 16585, 16586, 16587, 16588, 16589, 16590, 16591, 16592, 16593, 16594, 16595,
16596, 16597, 16598, 16599, 16600, 16601, 16684, 16685, 16686, 16687, 16688, 16689, 16690, 16691, 16692, 16693,
16694, 16695, 16696, 16697, 16698, 16699, 16700, 16701, 16702, 16703, 16704, 16705, 16706, 16707, 16790, 16791,
16792, 16793, 16794, 16795, 16796, 16797, 16798, 16799, 16800, 16801, 16802, 16803, 16804, 16805, 16806, 16807,
16808, 16809, 16810, 16811, 16812, 16813, 16896, 16897, 16898, 16899, 16900, 16901, 16902, 16903, 16904, 16905,
16906, 16907, 16908, 16909, 16910, 16911, 16912, 16913, 16914, 16915, 16916, 16917, 16918, 16919, 17002, 17003,
17004, 17005, 17006, 17007, 17008, 17009, 17010, 17011, 17012, 17013, 17014, 17015, 17016, 17017, 17018, 17019,
17020, 17021, 17022, 17023, 17024, 17025, 17108, 17109, 17110, 17111, 17112, 17113, 17114, 17115, 17116, 17117,
17118, 17119, 17120, 17121, 17122, 17123, 17124, 17125, 17126, 17127, 17128, 17129, 17130, 17131, 17214, 17215,
** ... 11 like lines cut
*Surface, type=ELEMENT, name=IFACE1_IN_LOWER
IFACE1_IN_LOWER, S2
*Surface, type=ELEMENT, name=IFACE1_IN_UPPER
IFACE1_IN_UPPER, S1
*Elset, elset=IFACE1_OUT_LOWER
1, 2, 3, 4, 5, 6, 7, 8, 9, 10, 11, 12, 13, 14, 15, 16,
17, 18, 19, 20, 21, 22, 23, 24, 25, 26, 27, 28, 29, 30, 31, 32,
33, 34, 35, 36, 37, 38, 39, 40, 41, 42, 43, 44, 45, 46, 47, 48,
49, 50, 51, 52, 53, 54, 55, 56, 57, 58, 59, 60, 61, 62, 63, 64,
65, 66, 67, 68, 69, 70, 71, 72, 73, 74, 75, 76, 77, 78, 79, 80,
81, 82, 83, 84, 85, 86, 87, 88, 89, 90, 91, 92, 93, 94, 95, 96,
97, 98, 99, 100, 101, 102, 103, 104, 105, 106, 107, 108, 109, 110, 111, 112,
113, 114, 115, 116, 117, 118, 119, 120, 121, 122, 123, 124, 125, 126, 127, 128,
129, 130, 131, 132, 133, 134, 135, 136, 137, 138, 139, 140, 141, 142, 143, 144,
145, 146, 147, 148, 149, 150, 151, 152, 153, 154, 155, 156, 157, 158, 159, 160,
161, 162, 163, 164, 165, 166, 167, 168, 169, 170, 171, 172, 173, 174, 175, 176,
177, 178, 179, 180, 181, 182, 183, 184, 185, 186, 187, 188, 189, 190, 191, 192,
193, 194, 195, 196, 197, 198, 199, 200, 201, 202, 203, 204, 205, 206, 207, 208,
209, 210, 211, 212, 213, 214, 215, 216, 217, 218, 219, 220, 221, 222, 223, 224,
225, 226, 227, 228, 229, 230, 231, 232, 233, 234, 235, 236, 237, 238, 239, 240,
241, 242, 243, 244, 245, 246, 247, 248, 249, 250, 251, 252, 253, 254, 255, 256,
257, 258, 259, 260, 261, 262, 263, 264, 265, 266, 267, 268, 269, 270, 271, 272,
273, 274, 275, 276, 277, 278, 279, 280, 281, 282, 283, 284, 285, 286, 287, 288,
289, 290, 291, 292, 293, 294, 295, 296, 297, 298, 299, 300, 301, 302, 303, 304,
305, 306, 307, 308, 309, 310, 311, 312, 313, 314, 315, 316, 317, 318, 319, 320,
** ... 652 like lines cut
*Elset, elset=IFACE1_OUT_UPPER
11237, 11238, 11239, 11240, 11241, 11242, 11243, 11244, 11245, 11246, 11247, 11248, 11249, 11250, 11251, 11252,
11253, 11254, 11255, 11256, 11257, 11258, 11259, 11260, 11261, 11262, 11263, 11264, 11265, 11266, 11267, 11268,
11269, 11270, 11271, 11272, 11273, 11274, 11275, 11276, 11277, 11278, 11279, 11280, 11281, 11282, 11283, 11284,
11285, 11286, 11287, 11288, 11289, 11290, 11291, 11292, 11293, 11294, 11295, 11296, 11297, 11298, 11299, 11300,
11301, 11302, 11303, 11304, 11305, 11306, 11307, 11308, 11309, 11310, 11311, 11312, 11313, 11314, 11315, 11316,
11317, 11318, 11319, 11320, 11321, 11322, 11323, 11324, 11325, 11326, 11327, 11328, 11329, 11330, 11331, 11332,
11333, 11334, 11335, 11336, 11337, 11338, 11339, 11340, 11341, 11342, 11343, 11344, 11345, 11346, 11347, 11348,
11349, 11350, 11351, 11352, 11353, 11354, 11355, 11356, 11357, 11358, 11359, 11360, 11361, 11362, 11363, 11364,
11365, 11366, 11367, 11368, 11369, 11370, 11371, 11372, 11373, 11374, 11375, 11376, 11377, 11378, 11379, 11380,
11381, 11382, 11383, 11384, 11385, 11386, 11387, 11388, 11389, 11390, 11391, 11392, 11393, 11394, 11395, 11396,
11397, 11398, 11399, 11400, 11401, 11402, 11403, 11404, 11405, 11406, 11407, 11408, 11409, 11410, 11411, 11412,
11413, 11414, 11415, 11416, 11417, 11418, 11419, 11420, 11421, 11422, 11423, 11424, 11425, 11426, 11427, 11428,
11429, 11430, 11431, 11432, 11433, 11434, 11435, 11436, 11437, 11438, 11439, 11440, 11441, 11442, 11443, 11444,
11445, 11446, 11447, 11448, 11449, 11450, 11451, 11452, 11453, 11454, 11455, 11456, 11457, 11458, 11459, 11460,
11461, 11462, 11463, 11464, 11465, 11466, 11467, 11468, 11469, 11470, 11471, 11472, 11473, 11474, 11475, 11476,
11477, 11478, 11479, 11480, 11481, 11482, 11483, 11484, 11485, 11486, 11487, 11488, 11489, 11490, 11491, 11492,
11493, 11494, 11495, 11496, 11497, 11498, 11499, 11500, 11501, 11502, 11503, 11504, 11505, 11506, 11507, 11508,
11509, 11510, 11511, 11512, 11513, 11514, 11515, 11516, 11517, 11518, 11519, 11520, 11521, 11522, 11523, 11524,
11525, 11526, 11527, 11528, 11529, 11530, 11531, 11532, 11533, 11534, 11535, 11536, 11537, 11538, 11539, 11540,
11541, 11542, 11543, 11544, 11545, 11546, 11547, 11548, 11549, 11550, 11551, 11552, 11553, 11554, 11555, 11556,
** ... 652 like lines cut
*Surface, type=ELEMENT, name=IFACE1_OUT_LOWER
IFACE1_OUT_LOWER, S2
*Surface, type=ELEMENT, name=IFACE1_OUT_UPPER
IFACE1_OUT_UPPER, S1
*Elset, elset=IFACE2_IN_LOWER
15632, 15633, 15634, 15635, 15636, 15637, 15638, 15639, 15734, 15735, 15736, 15737, 15738, 15739, 15740, 15741,
15742, 15743, 15744, 15745, 15746, 15747, 15748, 15749, 15839, 15840, 15841, 15842, 15843, 15844, 15845, 15846,
15847, 15848, 15849, 15850, 15851, 15852, 15853, 15854, 15855, 15856, 15944, 15945, 15946, 15947, 15948, 15949,
15950, 15951, 15952, 15953, 15954, 15955, 15956, 15957, 15958, 15959, 15960, 15961, 15962, 15963, 16049, 16050,
16051, 16052, 16053, 16054, 16055, 16056, 16057, 16058, 16059, 16060, 16061, 16062, 16063, 16064, 16065, 16066,
16067, 16068, 16069, 16070, 16155, 16156, 16157, 16158, 16159, 16160, 16161, 16162, 16163, 16164, 16165, 16166,
16167, 16168, 16169, 16170, 16171, 16172, 16173, 16174, 16175, 16176, 16261, 16262, 16263, 16264, 16265, 16266,
16267, 16268, 16269, 16270, 16271, 16272, 16273, 16274, 16275, 16276, 16277, 16278, 16279, 16280, 16281, 16282,
16367, 16368, 16369, 16370, 16371, 16372, 16373, 16374, 16375, 16376, 16377, 16378, 16379, 16380, 16381, 16382,
16383, 16384, 16385, 16386, 16387, 16388, 16472, 16473, 16474, 16475, 16476, 16477, 16478, 16479, 16480, 16481,
16482, 16483, 16484, 16485, 16486, 16487, 16488, 16489, 16490, 16491, 16492, 16493, 16494, 16495, 16578, 16579,
16580, 16581, 16582, 16583, 16584, 16585, 16586, 16587, 16588, 16589, 16590, 16591, 16592, 16593, 16594, 16595,
16596, 16597, 16598, 16599, 16600, 16601, 16684, 16685, 16686, 16687, 16688, 16689, 16690, 16691, 16692, 16693,
16694, 16695, 16696, 16697, 16698, 16699, 16700, 16701, 16702, 16703, 16704, 16705, 16706, 16707, 16790, 16791,
16792, 16793, 16794, 16795, 16796, 16797, 16798, 16799, 16800, 16801, 16802, 16803, 16804, 16805, 16806, 16807,
16808, 16809, 16810, 16811, 16812, 16813, 16896, 16897, 16898, 16899, 16900, 16901, 16902, 16903, 16904, 16905,
16906, 16907, 16908, 16909, 16910, 16911, 16912, 16913, 16914, 16915, 16916, 16917, 16918, 16919, 17002, 17003,
17004, 17005, 17006, 17007, 17008, 17009, 17010, 17011, 17012, 17013, 17014, 17015, 17016, 17017, 17018, 17019,
17020, 17021, 17022, 17023, 17024, 17025, 17108, 17109, 17110, 17111, 17112, 17113, 17114, 17115, 17116, 17117,
17118, 17119, 17120, 17121, 17122, 17123, 17124, 17125, 17126, 17127, 17128, 17129, 17130, 17131, 17214, 17215,
** ... 11 like lines cut
*Elset, elset=IFACE2_IN_UPPER
26868, 26869, 26870, 26871, 26872, 26873, 26874, 26875, 26970, 26971, 26972, 26973, 26974, 26975, 26976, 26977,
26978, 26979, 26980, 26981, 26982, 26983, 26984, 26985, 27075, 27076, 27077, 27078, 27079, 27080, 27081, 27082,
27083, 27084, 27085, 27086, 27087, 27088, 27089, 27090, 27091, 27092, 27180, 27181, 27182, 27183, 27184, 27185,
27186, 27187, 27188, 27189, 27190, 27191, 27192, 27193, 27194, 27195, 27196, 27197, 27198, 27199, 27285, 27286,
27287, 27288, 27289, 27290, 27291, 27292, 27293, 27294, 27295, 27296, 27297, 27298, 27299, 27300, 27301, 27302,
27303, 27304, 27305, 27306, 27391, 27392, 27393, 27394, 27395, 27396, 27397, 27398, 27399, 27400, 27401, 27402,
27403, 27404, 27405, 27406, 27407, 27408, 27409, 27410, 27411, 27412, 27497, 27498, 27499, 27500, 27501, 27502,
27503, 27504, 27505, 27506, 27507, 27508, 27509, 27510, 27511, 27512, 27513, 27514, 27515, 27516, 27517, 27518,
27603, 27604, 27605, 27606, 27607, 27608, 27609, 27610, 27611, 27612, 27613, 27614, 27615, 27616, 27617, 27618,
27619, 27620, 27621, 27622, 27623, 27624, 27708, 27709, 27710, 27711, 27712, 27713, 27714, 27715, 27716, 27717,
27718, 27719, 27720, 27721, 27722, 27723, 27724, 27725, 27726, 27727, 27728, 27729, 27730, 27731, 27814, 27815,
27816, 27817, 27818, 27819, 27820, 27821, 27822, 27823, 27824, 27825, 27826, 27827, 27828, 27829, 27830, 27831,
27832, 27833, 27834, 27835, 27836, 27837, 27920, 27921, 27922, 27923, 27924, 27925, 27926, 27927, 27928, 27929,
27930, 27931, 27932, 27933, 27934, 27935, 27936, 27937, 27938, 27939, 27940, 27941, 27942, 27943, 28026, 28027,
28028, 28029, 28030, 28031, 28032, 28033, 28034, 28035, 28036, 28037, 28038, 28039, 28040, 28041, 28042, 28043,
28044, 28045, 28046, 28047, 28048, 28049, 28132, 28133, 28134, 28135, 28136, 28137, 28138, 28139, 28140, 28141,
28142, 28143, 28144, 28145, 28146, 28147, 28148, 28149, 28150, 28151, 28152, 28153, 28154, 28155, 28238, 28239,
28240, 28241, 28242, 28243, 28244, 28245, 28246, 28247, 28248, 28249, 28250, 28251, 28252, 28253, 28254, 28255,
28256, 28257, 28258, 28259, 28260, 28261, 28344, 28345, 28346, 28347, 28348, 28349, 28350, 28351, 28352, 28353,
28354, 28355, 28356, 28357, 28358, 28359, 28360, 28361, 28362, 28363, 28364, 28365, 28366, 28367, 28450, 28451,
** ... 11 like lines cut
*Surface, type=ELEMENT, name=IFACE2_IN_LOWER
IFACE2_IN_LOWER, S2
*Surface, type=ELEMENT, name=IFACE2_IN_UPPER
IFACE2_IN_UPPER, S1
*Elset, elset=IFACE2_OUT_LOWER
11237, 11238, 11239, 11240, 11241, 11242, 11243, 11244, 11245, 11246, 11247, 11248, 11249, 11250, 11251, 11252,
11253, 11254, 11255, 11256, 11257, 11258, 11259, 11260, 11261, 11262, 11263, 11264, 11265, 11266, 11267, 11268,
11269, 11270, 11271, 11272, 11273, 11274, 11275, 11276, 11277, 11278, 11279, 11280, 11281, 11282, 11283, 11284,
11285, 11286, 11287, 11288, 11289, 11290, 11291, 11292, 11293, 11294, 11295, 11296, 11297, 11298, 11299, 11300,
11301, 11302, 11303, 11304, 11305, 11306, 11307, 11308, 11309, 11310, 11311, 11312, 11313, 11314, 11315, 11316,
11317, 11318, 11319, 11320, 11321, 11322, 11323, 11324, 11325, 11326, 11327, 11328, 11329, 11330, 11331, 11332,
11333, 11334, 11335, 11336, 11337, 11338, 11339, 11340, 11341, 11342, 11343, 11344, 11345, 11346, 11347, 11348,
11349, 11350, 11351, 11352, 11353, 11354, 11355, 11356, 11357, 11358, 11359, 11360, 11361, 11362, 11363, 11364,
11365, 11366, 11367, 11368, 11369, 11370, 11371, 11372, 11373, 11374, 11375, 11376, 11377, 11378, 11379, 11380,
11381, 11382, 11383, 11384, 11385, 11386, 11387, 11388, 11389, 11390, 11391, 11392, 11393, 11394, 11395, 11396,
11397, 11398, 11399, 11400, 11401, 11402, 11403, 11404, 11405, 11406, 11407, 11408, 11409, 11410, 11411, 11412,
11413, 11414, 11415, 11416, 11417, 11418, 11419, 11420, 11421, 11422, 11423, 11424, 11425, 11426, 11427, 11428,
11429, 11430, 11431, 11432, 11433, 11434, 11435, 11436, 11437, 11438, 11439, 11440, 11441, 11442, 11443, 11444,
11445, 11446, 11447, 11448, 11449, 11450, 11451, 11452, 11453, 11454, 11455, 11456, 11457, 11458, 11459, 11460,
11461, 11462, 11463, 11464, 11465, 11466, 11467, 11468, 11469, 11470, 11471, 11472, 11473, 11474, 11475, 11476,
11477, 11478, 11479, 11480, 11481, 11482, 11483, 11484, 11485, 11486, 11487, 11488, 11489, 11490, 11491, 11492,
11493, 11494, 11495, 11496, 11497, 11498, 11499, 11500, 11501, 11502, 11503, 11504, 11505, 11506, 11507, 11508,
11509, 11510, 11511, 11512, 11513, 11514, 11515, 11516, 11517, 11518, 11519, 11520, 11521, 11522, 11523, 11524,
11525, 11526, 11527, 11528, 11529, 11530, 11531, 11532, 11533, 11534, 11535, 11536, 11537, 11538, 11539, 11540,
11541, 11542, 11543, 11544, 11545, 11546, 11547, 11548, 11549, 11550, 11551, 11552, 11553, 11554, 11555, 11556,
** ... 652 like lines cut
*Elset, elset=IFACE2_OUT_UPPER
22473, 22474, 22475, 22476, 22477, 22478, 22479, 22480, 22481, 22482, 22483, 22484, 22485, 22486, 22487, 22488,
22489, 22490, 22491, 22492, 22493, 22494, 22495, 22496, 22497, 22498, 22499, 22500, 22501, 22502, 22503, 22504,
22505, 22506, 22507, 22508, 22509, 22510, 22511, 22512, 22513, 22514, 22515, 22516, 22517, 22518, 22519, 22520,
22521, 22522, 22523, 22524, 22525, 22526, 22527, 22528, 22529, 22530, 22531, 22532, 22533, 22534, 22535, 22536,
22537, 22538, 22539, 22540, 22541, 22542, 22543, 22544, 22545, 22546, 22547, 22548, 22549, 22550, 22551, 22552,
22553, 22554, 22555, 22556, 22557, 22558, 22559, 22560, 22561, 22562, 22563, 22564, 22565, 22566, 22567, 22568,
22569, 22570, 22571, 22572, 22573, 22574, 22575, 22576, 22577, 22578, 22579, 22580, 22581, 22582, 22583, 22584,
22585, 22586, 22587, 22588, 22589, 22590, 22591, 22592, 22593, 22594, 22595, 22596, 22597, 22598, 22599, 22600,
22601, 22602, 22603, 22604, 22605, 22606, 22607, 22608, 22609, 22610, 22611, 22612, 22613, 22614, 22615, 22616,
22617, 22618, 22619, 22620, 22621, 22622, 22623, 22624, 22625, 22626, 22627, 22628, 22629, 22630, 22631, 22632,
22633, 22634, 22635, 22636, 22637, 22638, 22639, 22640, 22641, 22642, 22643, 22644, 22645, 22646, 22647, 22648,
22649, 22650, 22651, 22652, 22653, 22654, 22655, 22656, 22657, 22658, 22659, 22660, 22661, 22662, 22663, 22664,
22665, 22666, 22667, 22668, 22669, 22670, 22671, 22672, 22673, 22674, 22675, 22676, 22677, 22678, 22679, 22680,
22681, 22682, 22683, 22684, 22685, 22686, 22687, 22688, 22689, 22690, 22691, 22692, 22693, 22694, 22695, 22696,
22697, 22698, 22699, 22700, 22701, 22702, 22703, 22704, 22705, 22706, 22707, 22708, 22709, 22710, 22711, 22712,
22713, 22714, 22715, 22716, 22717, 22718, 22719, 22720, 22721, 22722, 22723, 22724, 22725, 22726, 22727, 22728,
22729, 22730, 22731, 22732, 22733, 22734, 22735, 22736, 22737, 22738, 22739, 22740, 22741, 22742, 22743, 22744,
22745, 22746, 22747, 22748, 22749, 22750, 22751, 22752, 22753, 22754, 22755, 22756, 22757, 22758, 22759, 22760,
22761, 22762, 22763, 22764, 22765, 22766, 22767, 22768, 22769, 22770, 22771, 22772, 22773, 22774, 22775, 22776,
22777, 22778, 22779, 22780, 22781, 22782, 22783, 22784, 22785, 22786, 22787, 22788, 22789, 22790, 22791, 22792,
** ... 652 like lines cut
*Surface, type=ELEMENT, name=IFACE2_OUT_LOWER
IFACE2_OUT_LOWER, S2
*Surface, type=ELEMENT, name=IFACE2_OUT_UPPER
IFACE2_OUT_UPPER, S1
*Elset, elset=IFACE3_IN_LOWER
26868, 26869, 26870, 26871, 26872, 26873, 26874, 26875, 26970, 26971, 26972, 26973, 26974, 26975, 26976, 26977,
26978, 26979, 26980, 26981, 26982, 26983, 26984, 26985, 27075, 27076, 27077, 27078, 27079, 27080, 27081, 27082,
27083, 27084, 27085, 27086, 27087, 27088, 27089, 27090, 27091, 27092, 27180, 27181, 27182, 27183, 27184, 27185,
27186, 27187, 27188, 27189, 27190, 27191, 27192, 27193, 27194, 27195, 27196, 27197, 27198, 27199, 27285, 27286,
27287, 27288, 27289, 27290, 27291, 27292, 27293, 27294, 27295, 27296, 27297, 27298, 27299, 27300, 27301, 27302,
27303, 27304, 27305, 27306, 27391, 27392, 27393, 27394, 27395, 27396, 27397, 27398, 27399, 27400, 27401, 27402,
27403, 27404, 27405, 27406, 27407, 27408, 27409, 27410, 27411, 27412, 27497, 27498, 27499, 27500, 27501, 27502,
27503, 27504, 27505, 27506, 27507, 27508, 27509, 27510, 27511, 27512, 27513, 27514, 27515, 27516, 27517, 27518,
27603, 27604, 27605, 27606, 27607, 27608, 27609, 27610, 27611, 27612, 27613, 27614, 27615, 27616, 27617, 27618,
27619, 27620, 27621, 27622, 27623, 27624, 27708, 27709, 27710, 27711, 27712, 27713, 27714, 27715, 27716, 27717,
27718, 27719, 27720, 27721, 27722, 27723, 27724, 27725, 27726, 27727, 27728, 27729, 27730, 27731, 27814, 27815,
27816, 27817, 27818, 27819, 27820, 27821, 27822, 27823, 27824, 27825, 27826, 27827, 27828, 27829, 27830, 27831,
27832, 27833, 27834, 27835, 27836, 27837, 27920, 27921, 27922, 27923, 27924, 27925, 27926, 27927, 27928, 27929,
27930, 27931, 27932, 27933, 27934, 27935, 27936, 27937, 27938, 27939, 27940, 27941, 27942, 27943, 28026, 28027,
28028, 28029, 28030, 28031, 28032, 28033, 28034, 28035, 28036, 28037, 28038, 28039, 28040, 28041, 28042, 28043,
28044, 28045, 28046, 28047, 28048, 28049, 28132, 28133, 28134, 28135, 28136, 28137, 28138, 28139, 28140, 28141,
28142, 28143, 28144, 28145, 28146, 28147, 28148, 28149, 28150, 28151, 28152, 28153, 28154, 28155, 28238, 28239,
28240, 28241, 28242, 28243, 28244, 28245, 28246, 28247, 28248, 28249, 28250, 28251, 28252, 28253, 28254, 28255,
28256, 28257, 28258, 28259, 28260, 28261, 28344, 28345, 28346, 28347, 28348, 28349, 28350, 28351, 28352, 28353,
28354, 28355, 28356, 28357, 28358, 28359, 28360, 28361, 28362, 28363, 28364, 28365, 28366, 28367, 28450, 28451,
** ... 11 like lines cut
*Elset, elset=IFACE3_IN_UPPER
38104, 38105, 38106, 38107, 38108, 38109, 38110, 38111, 38206, 38207, 38208, 38209, 38210, 38211, 38212, 38213,
38214, 38215, 38216, 38217, 38218, 38219, 38220, 38221, 38311, 38312, 38313, 38314, 38315, 38316, 38317, 38318,
38319, 38320, 38321, 38322, 38323, 38324, 38325, 38326, 38327, 38328, 38416, 38417, 38418, 38419, 38420, 38421,
38422, 38423, 38424, 38425, 38426, 38427, 38428, 38429, 38430, 38431, 38432, 38433, 38434, 38435, 38521, 38522,
38523, 38524, 38525, 38526, 38527, 38528, 38529, 38530, 38531, 38532, 38533, 38534, 38535, 38536, 38537, 38538,
38539, 38540, 38541, 38542, 38627, 38628, 38629, 38630, 38631, 38632, 38633, 38634, 38635, 38636, 38637, 38638,
38639, 38640, 38641, 38642, 38643, 38644, 38645, 38646, 38647, 38648, 38733, 38734, 38735, 38736, 38737, 38738,
38739, 38740, 38741, 38742, 38743, 38744, 38745, 38746, 38747, 38748, 38749, 38750, 38751, 38752, 38753, 38754,
38839, 38840, 38841, 38842, 38843, 38844, 38845, 38846, 38847, 38848, 38849, 38850, 38851, 38852, 38853, 38854,
38855, 38856, 38857, 38858, 38859, 38860, 38944, 38945, 38946, 38947, 38948, 38949, 38950, 38951, 38952, 38953,
38954, 38955, 38956, 38957, 38958, 38959, 38960, 38961, 38962, 38963, 38964, 38965, 38966, 38967, 39050, 39051,
39052, 39053, 39054, 39055, 39056, 39057, 39058, 39059, 39060, 39061, 39062, 39063, 39064, 39065, 39066, 39067,
39068, 39069, 39070, 39071, 39072, 39073, 39156, 39157, 39158, 39159, 39160, 39161, 39162, 39163, 39164, 39165,
39166, 39167, 39168, 39169, 39170, 39171, 39172, 39173, 39174, 39175, 39176, 39177, 39178, 39179, 39262, 39263,
39264, 39265, 39266, 39267, 39268, 39269, 39270, 39271, 39272, 39273, 39274, 39275, 39276, 39277, 39278, 39279,
39280, 39281, 39282, 39283, 39284, 39285, 39368, 39369, 39370, 39371, 39372, 39373, 39374, 39375, 39376, 39377,
39378, 39379, 39380, 39381, 39382, 39383, 39384, 39385, 39386, 39387, 39388, 39389, 39390, 39391, 39474, 39475,
39476, 39477, 39478, 39479, 39480, 39481, 39482, 39483, 39484, 39485, 39486, 39487, 39488, 39489, 39490, 39491,
39492, 39493, 39494, 39495, 39496, 39497, 39580, 39581, 39582, 39583, 39584, 39585, 39586, 39587, 39588, 39589,
39590, 39591, 39592, 39593, 39594, 39595, 39596, 39597, 39598, 39599, 39600, 39601, 39602, 39603, 39686, 39687,
** ... 11 like lines cut
*Surface, type=ELEMENT, name=IFACE3_IN_LOWER
IFACE3_IN_LOWER, S2
*Surface, type=ELEMENT, name=IFACE3_IN_UPPER
IFACE3_IN_UPPER, S1
*Elset, elset=IFACE3_OUT_LOWER
22473, 22474, 22475, 22476, 22477, 22478, 22479, 22480, 22481, 22482, 22483, 22484, 22485, 22486, 22487, 22488,
22489, 22490, 22491, 22492, 22493, 22494, 22495, 22496, 22497, 22498, 22499, 22500, 22501, 22502, 22503, 22504,
22505, 22506, 22507, 22508, 22509, 22510, 22511, 22512, 22513, 22514, 22515, 22516, 22517, 22518, 22519, 22520,
22521, 22522, 22523, 22524, 22525, 22526, 22527, 22528, 22529, 22530, 22531, 22532, 22533, 22534, 22535, 22536,
22537, 22538, 22539, 22540, 22541, 22542, 22543, 22544, 22545, 22546, 22547, 22548, 22549, 22550, 22551, 22552,
22553, 22554, 22555, 22556, 22557, 22558, 22559, 22560, 22561, 22562, 22563, 22564, 22565, 22566, 22567, 22568,
22569, 22570, 22571, 22572, 22573, 22574, 22575, 22576, 22577, 22578, 22579, 22580, 22581, 22582, 22583, 22584,
22585, 22586, 22587, 22588, 22589, 22590, 22591, 22592, 22593, 22594, 22595, 22596, 22597, 22598, 22599, 22600,
22601, 22602, 22603, 22604, 22605, 22606, 22607, 22608, 22609, 22610, 22611, 22612, 22613, 22614, 22615, 22616,
22617, 22618, 22619, 22620, 22621, 22622, 22623, 22624, 22625, 22626, 22627, 22628, 22629, 22630, 22631, 22632,
22633, 22634, 22635, 22636, 22637, 22638, 22639, 22640, 22641, 22642, 22643, 22644, 22645, 22646, 22647, 22648,
22649, 22650, 22651, 22652, 22653, 22654, 22655, 22656, 22657, 22658, 22659, 22660, 22661, 22662, 22663, 22664,
22665, 22666, 22667, 22668, 22669, 22670, 22671, 22672, 22673, 22674, 22675, 22676, 22677, 22678, 22679, 22680,
22681, 22682, 22683, 22684, 22685, 22686, 22687, 22688, 22689, 22690, 22691, 22692, 22693, 22694, 22695, 22696,
22697, 22698, 22699, 22700, 22701, 22702, 22703, 22704, 22705, 22706, 22707, 22708, 22709, 22710, 22711, 22712,
22713, 22714, 22715, 22716, 22717, 22718, 22719, 22720, 22721, 22722, 22723, 22724, 22725, 22726, 22727, 22728,
22729, 22730, 22731, 22732, 22733, 22734, 22735, 22736, 22737, 22738, 22739, 22740, 22741, 22742, 22743, 22744,
22745, 22746, 22747, 22748, 22749, 22750, 22751, 22752, 22753, 22754, 22755, 22756, 22757, 22758, 22759, 22760,
22761, 22762, 22763, 22764, 22765, 22766, 22767, 22768, 22769, 22770, 22771, 22772, 22773, 22774, 22775, 22776,
22777, 22778, 22779, 22780, 22781, 22782, 22783, 22784, 22785, 22786, 22787, 22788, 22789, 22790, 22791, 22792,
** ... 652 like lines cut
*Elset, elset=IFACE3_OUT_UPPER
33709, 33710, 33711, 33712, 33713, 33714, 33715, 33716, 33717, 33718, 33719, 33720, 33721, 33722, 33723, 33724,
33725, 33726, 33727, 33728, 33729, 33730, 33731, 33732, 33733, 33734, 33735, 33736, 33737, 33738, 33739, 33740,
33741, 33742, 33743, 33744, 33745, 33746, 33747, 33748, 33749, 33750, 33751, 33752, 33753, 33754, 33755, 33756,
33757, 33758, 33759, 33760, 33761, 33762, 33763, 33764, 33765, 33766, 33767, 33768, 33769, 33770, 33771, 33772,
33773, 33774, 33775, 33776, 33777, 33778, 33779, 33780, 33781, 33782, 33783, 33784, 33785, 33786, 33787, 33788,
33789, 33790, 33791, 33792, 33793, 33794, 33795, 33796, 33797, 33798, 33799, 33800, 33801, 33802, 33803, 33804,
33805, 33806, 33807, 33808, 33809, 33810, 33811, 33812, 33813, 33814, 33815, 33816, 33817, 33818, 33819, 33820,
33821, 33822, 33823, 33824, 33825, 33826, 33827, 33828, 33829, 33830, 33831, 33832, 33833, 33834, 33835, 33836,
33837, 33838, 33839, 33840, 33841, 33842, 33843, 33844, 33845, 33846, 33847, 33848, 33849, 33850, 33851, 33852,
33853, 33854, 33855, 33856, 33857, 33858, 33859, 33860, 33861, 33862, 33863, 33864, 33865, 33866, 33867, 33868,
33869, 33870, 33871, 33872, 33873, 33874, 33875, 33876, 33877, 33878, 33879, 33880, 33881, 33882, 33883, 33884,
33885, 33886, 33887, 33888, 33889, 33890, 33891, 33892, 33893, 33894, 33895, 33896, 33897, 33898, 33899, 33900,
33901, 33902, 33903, 33904, 33905, 33906, 33907, 33908, 33909, 33910, 33911, 33912, 33913, 33914, 33915, 33916,
33917, 33918, 33919, 33920, 33921, 33922, 33923, 33924, 33925, 33926, 33927, 33928, 33929, 33930, 33931, 33932,
33933, 33934, 33935, 33936, 33937, 33938, 33939, 33940, 33941, 33942, 33943, 33944, 33945, 33946, 33947, 33948,
33949, 33950, 33951, 33952, 33953, 33954, 33955, 33956, 33957, 33958, 33959, 33960, 33961, 33962, 33963, 33964,
33965, 33966, 33967, 33968, 33969, 33970, 33971, 33972, 33973, 33974, 33975, 33976, 33977, 33978, 33979, 33980,
33981, 33982, 33983, 33984, 33985, 33986, 33987, 33988, 33989, 33990, 33991, 33992, 33993, 33994, 33995, 33996,
33997, 33998, 33999, 34000, 34001, 34002, 34003, 34004, 34005, 34006, 34007, 34008, 34009, 34010, 34011, 34012,
34013, 34014, 34015, 34016, 34017, 34018, 34019, 34020, 34021, 34022, 34023, 34024, 34025, 34026, 34027, 34028,
** ... 652 like lines cut
*Surface, type=ELEMENT, name=IFACE3_OUT_LOWER
IFACE3_OUT_LOWER, S2
*Surface, type=ELEMENT, name=IFACE3_OUT_UPPER
IFACE3_OUT_UPPER, S1
*Elset, elset=IFACE4_IN_LOWER
38104, 38105, 38106, 38107, 38108, 38109, 38110, 38111, 38206, 38207, 38208, 38209, 38210, 38211, 38212, 38213,
38214, 38215, 38216, 38217, 38218, 38219, 38220, 38221, 38311, 38312, 38313, 38314, 38315, 38316, 38317, 38318,
38319, 38320, 38321, 38322, 38323, 38324, 38325, 38326, 38327, 38328, 38416, 38417, 38418, 38419, 38420, 38421,
38422, 38423, 38424, 38425, 38426, 38427, 38428, 38429, 38430, 38431, 38432, 38433, 38434, 38435, 38521, 38522,
38523, 38524, 38525, 38526, 38527, 38528, 38529, 38530, 38531, 38532, 38533, 38534, 38535, 38536, 38537, 38538,
38539, 38540, 38541, 38542, 38627, 38628, 38629, 38630, 38631, 38632, 38633, 38634, 38635, 38636, 38637, 38638,
38639, 38640, 38641, 38642, 38643, 38644, 38645, 38646, 38647, 38648, 38733, 38734, 38735, 38736, 38737, 38738,
38739, 38740, 38741, 38742, 38743, 38744, 38745, 38746, 38747, 38748, 38749, 38750, 38751, 38752, 38753, 38754,
38839, 38840, 38841, 38842, 38843, 38844, 38845, 38846, 38847, 38848, 38849, 38850, 38851, 38852, 38853, 38854,
38855, 38856, 38857, 38858, 38859, 38860, 38944, 38945, 38946, 38947, 38948, 38949, 38950, 38951, 38952, 38953,
38954, 38955, 38956, 38957, 38958, 38959, 38960, 38961, 38962, 38963, 38964, 38965, 38966, 38967, 39050, 39051,
39052, 39053, 39054, 39055, 39056, 39057, 39058, 39059, 39060, 39061, 39062, 39063, 39064, 39065, 39066, 39067,
39068, 39069, 39070, 39071, 39072, 39073, 39156, 39157, 39158, 39159, 39160, 39161, 39162, 39163, 39164, 39165,
39166, 39167, 39168, 39169, 39170, 39171, 39172, 39173, 39174, 39175, 39176, 39177, 39178, 39179, 39262, 39263,
39264, 39265, 39266, 39267, 39268, 39269, 39270, 39271, 39272, 39273, 39274, 39275, 39276, 39277, 39278, 39279,
39280, 39281, 39282, 39283, 39284, 39285, 39368, 39369, 39370, 39371, 39372, 39373, 39374, 39375, 39376, 39377,
39378, 39379, 39380, 39381, 39382, 39383, 39384, 39385, 39386, 39387, 39388, 39389, 39390, 39391, 39474, 39475,
39476, 39477, 39478, 39479, 39480, 39481, 39482, 39483, 39484, 39485, 39486, 39487, 39488, 39489, 39490, 39491,
39492, 39493, 39494, 39495, 39496, 39497, 39580, 39581, 39582, 39583, 39584, 39585, 39586, 39587, 39588, 39589,
39590, 39591, 39592, 39593, 39594, 39595, 39596, 39597, 39598, 39599, 39600, 39601, 39602, 39603, 39686, 39687,
** ... 11 like lines cut
*Elset, elset=IFACE4_IN_UPPER
49340, 49341, 49342, 49343, 49344, 49345, 49346, 49347, 49442, 49443, 49444, 49445, 49446, 49447, 49448, 49449,
49450, 49451, 49452, 49453, 49454, 49455, 49456, 49457, 49547, 49548, 49549, 49550, 49551, 49552, 49553, 49554,
49555, 49556, 49557, 49558, 49559, 49560, 49561, 49562, 49563, 49564, 49652, 49653, 49654, 49655, 49656, 49657,
49658, 49659, 49660, 49661, 49662, 49663, 49664, 49665, 49666, 49667, 49668, 49669, 49670, 49671, 49757, 49758,
49759, 49760, 49761, 49762, 49763, 49764, 49765, 49766, 49767, 49768, 49769, 49770, 49771, 49772, 49773, 49774,
49775, 49776, 49777, 49778, 49863, 49864, 49865, 49866, 49867, 49868, 49869, 49870, 49871, 49872, 49873, 49874,
49875, 49876, 49877, 49878, 49879, 49880, 49881, 49882, 49883, 49884, 49969, 49970, 49971, 49972, 49973, 49974,
49975, 49976, 49977, 49978, 49979, 49980, 49981, 49982, 49983, 49984, 49985, 49986, 49987, 49988, 49989, 49990,
50075, 50076, 50077, 50078, 50079, 50080, 50081, 50082, 50083, 50084, 50085, 50086, 50087, 50088, 50089, 50090,
50091, 50092, 50093, 50094, 50095, 50096, 50180, 50181, 50182, 50183, 50184, 50185, 50186, 50187, 50188, 50189,
50190, 50191, 50192, 50193, 50194, 50195, 50196, 50197, 50198, 50199, 50200, 50201, 50202, 50203, 50286, 50287,
50288, 50289, 50290, 50291, 50292, 50293, 50294, 50295, 50296, 50297, 50298, 50299, 50300, 50301, 50302, 50303,
50304, 50305, 50306, 50307, 50308, 50309, 50392, 50393, 50394, 50395, 50396, 50397, 50398, 50399, 50400, 50401,
50402, 50403, 50404, 50405, 50406, 50407, 50408, 50409, 50410, 50411, 50412, 50413, 50414, 50415, 50498, 50499,
50500, 50501, 50502, 50503, 50504, 50505, 50506, 50507, 50508, 50509, 50510, 50511, 50512, 50513, 50514, 50515,
50516, 50517, 50518, 50519, 50520, 50521, 50604, 50605, 50606, 50607, 50608, 50609, 50610, 50611, 50612, 50613,
50614, 50615, 50616, 50617, 50618, 50619, 50620, 50621, 50622, 50623, 50624, 50625, 50626, 50627, 50710, 50711,
50712, 50713, 50714, 50715, 50716, 50717, 50718, 50719, 50720, 50721, 50722, 50723, 50724, 50725, 50726, 50727,
50728, 50729, 50730, 50731, 50732, 50733, 50816, 50817, 50818, 50819, 50820, 50821, 50822, 50823, 50824, 50825,
50826, 50827, 50828, 50829, 50830, 50831, 50832, 50833, 50834, 50835, 50836, 50837, 50838, 50839, 50922, 50923,
** ... 11 like lines cut
*Surface, type=ELEMENT, name=IFACE4_IN_LOWER
IFACE4_IN_LOWER, S2
*Surface, type=ELEMENT, name=IFACE4_IN_UPPER
IFACE4_IN_UPPER, S1
*Elset, elset=IFACE4_OUT_LOWER
33709, 33710, 33711, 33712, 33713, 33714, 33715, 33716, 33717, 33718, 33719, 33720, 33721, 33722, 33723, 33724,
33725, 33726, 33727, 33728, 33729, 33730, 33731, 33732, 33733, 33734, 33735, 33736, 33737, 33738, 33739, 33740,
33741, 33742, 33743, 33744, 33745, 33746, 33747, 33748, 33749, 33750, 33751, 33752, 33753, 33754, 33755, 33756,
33757, 33758, 33759, 33760, 33761, 33762, 33763, 33764, 33765, 33766, 33767, 33768, 33769, 33770, 33771, 33772,
33773, 33774, 33775, 33776, 33777, 33778, 33779, 33780, 33781, 33782, 33783, 33784, 33785, 33786, 33787, 33788,
33789, 33790, 33791, 33792, 33793, 33794, 33795, 33796, 33797, 33798, 33799, 33800, 33801, 33802, 33803, 33804,
33805, 33806, 33807, 33808, 33809, 33810, 33811, 33812, 33813, 33814, 33815, 33816, 33817, 33818, 33819, 33820,
33821, 33822, 33823, 33824, 33825, 33826, 33827, 33828, 33829, 33830, 33831, 33832, 33833, 33834, 33835, 33836,
33837, 33838, 33839, 33840, 33841, 33842, 33843, 33844, 33845, 33846, 33847, 33848, 33849, 33850, 33851, 33852,
33853, 33854, 33855, 33856, 33857, 33858, 33859, 33860, 33861, 33862, 33863, 33864, 33865, 33866, 33867, 33868,
33869, 33870, 33871, 33872, 33873, 33874, 33875, 33876, 33877, 33878, 33879, 33880, 33881, 33882, 33883, 33884,
33885, 33886, 33887, 33888, 33889, 33890, 33891, 33892, 33893, 33894, 33895, 33896, 33897, 33898, 33899, 33900,
33901, 33902, 33903, 33904, 33905, 33906, 33907, 33908, 33909, 33910, 33911, 33912, 33913, 33914, 33915, 33916,
33917, 33918, 33919, 33920, 33921, 33922, 33923, 33924, 33925, 33926, 33927, 33928, 33929, 33930, 33931, 33932,
33933, 33934, 33935, 33936, 33937, 33938, 33939, 33940, 33941, 33942, 33943, 33944, 33945, 33946, 33947, 33948,
33949, 33950, 33951, 33952, 33953, 33954, 33955, 33956, 33957, 33958, 33959, 33960, 33961, 33962, 33963, 33964,
33965, 33966, 33967, 33968, 33969, 33970, 33971, 33972, 33973, 33974, 33975, 33976, 33977, 33978, 33979, 33980,
33981, 33982, 33983, 33984, 33985, 33986, 33987, 33988, 33989, 33990, 33991, 33992, 33993, 33994, 33995, 33996,
33997, 33998, 33999, 34000, 34001, 34002, 34003, 34004, 34005, 34006, 34007, 34008, 34009, 34010, 34011, 34012,
34013, 34014, 34015, 34016, 34017, 34018, 34019, 34020, 34021, 34022, 34023, 34024, 34025, 34026, 34027, 34028,
** ... 652 like lines cut
*Elset, elset=IFACE4_OUT_UPPER
44945, 44946, 44947, 44948, 44949, 44950, 44951, 44952, 44953, 44954, 44955, 44956, 44957, 44958, 44959, 44960,
44961, 44962, 44963, 44964, 44965, 44966, 44967, 44968, 44969, 44970, 44971, 44972, 44973, 44974, 44975, 44976,
44977, 44978, 44979, 44980, 44981, 44982, 44983, 44984, 44985, 44986, 44987, 44988, 44989, 44990, 44991, 44992,
44993, 44994, 44995, 44996, 44997, 44998, 44999, 45000, 45001, 45002, 45003, 45004, 45005, 45006, 45007, 45008,
45009, 45010, 45011, 45012, 45013, 45014, 45015, 45016, 45017, 45018, 45019, 45020, 45021, 45022, 45023, 45024,
45025, 45026, 45027, 45028, 45029, 45030, 45031, 45032, 45033, 45034, 45035, 45036, 45037, 45038, 45039, 45040,
45041, 45042, 45043, 45044, 45045, 45046, 45047, 45048, 45049, 45050, 45051, 45052, 45053, 45054, 45055, 45056,
45057, 45058, 45059, 45060, 45061, 45062, 45063, 45064, 45065, 45066, 45067, 45068, 45069, 45070, 45071, 45072,
45073, 45074, 45075, 45076, 45077, 45078, 45079, 45080, 45081, 45082, 45083, 45084, 45085, 45086, 45087, 45088,
45089, 45090, 45091, 45092, 45093, 45094, 45095, 45096, 45097, 45098, 45099, 45100, 45101, 45102, 45103, 45104,
45105, 45106, 45107, 45108, 45109, 45110, 45111, 45112, 45113, 45114, 45115, 45116, 45117, 45118, 45119, 45120,
45121, 45122, 45123, 45124, 45125, 45126, 45127, 45128, 45129, 45130, 45131, 45132, 45133, 45134, 45135, 45136,
45137, 45138, 45139, 45140, 45141, 45142, 45143, 45144, 45145, 45146, 45147, 45148, 45149, 45150, 45151, 45152,
45153, 45154, 45155, 45156, 45157, 45158, 45159, 45160, 45161, 45162, 45163, 45164, 45165, 45166, 45167, 45168,
45169, 45170, 45171, 45172, 45173, 45174, 45175, 45176, 45177, 45178, 45179, 45180, 45181, 45182, 45183, 45184,
45185, 45186, 45187, 45188, 45189, 45190, 45191, 45192, 45193, 45194, 45195, 45196, 45197, 45198, 45199, 45200,
45201, 45202, 45203, 45204, 45205, 45206, 45207, 45208, 45209, 45210, 45211, 45212, 45213, 45214, 45215, 45216,
45217, 45218, 45219, 45220, 45221, 45222, 45223, 45224, 45225, 45226, 45227, 45228, 45229, 45230, 45231, 45232,
45233, 45234, 45235, 45236, 45237, 45238, 45239, 45240, 45241, 45242, 45243, 45244, 45245, 45246, 45247, 45248,
45249, 45250, 45251, 45252, 45253, 45254, 45255, 45256, 45257, 45258, 45259, 45260, 45261, 45262, 45263, 45264,
** ... 652 like lines cut
*Surface, type=ELEMENT, name=IFACE4_OUT_LOWER
IFACE4_OUT_LOWER, S2
*Surface, type=ELEMENT, name=IFACE4_OUT_UPPER
IFACE4_OUT_UPPER, S1
*Elset, elset=IFACE5_IN_LOWER
49340, 49341, 49342, 49343, 49344, 49345, 49346, 49347, 49442, 49443, 49444, 49445, 49446, 49447, 49448, 49449,
49450, 49451, 49452, 49453, 49454, 49455, 49456, 49457, 49547, 49548, 49549, 49550, 49551, 49552, 49553, 49554,
49555, 49556, 49557, 49558, 49559, 49560, 49561, 49562, 49563, 49564, 49652, 49653, 49654, 49655, 49656, 49657,
49658, 49659, 49660, 49661, 49662, 49663, 49664, 49665, 49666, 49667, 49668, 49669, 49670, 49671, 49757, 49758,
49759, 49760, 49761, 49762, 49763, 49764, 49765, 49766, 49767, 49768, 49769, 49770, 49771, 49772, 49773, 49774,
49775, 49776, 49777, 49778, 49863, 49864, 49865, 49866, 49867, 49868, 49869, 49870, 49871, 49872, 49873, 49874,
49875, 49876, 49877, 49878, 49879, 49880, 49881, 49882, 49883, 49884, 49969, 49970, 49971, 49972, 49973, 49974,
49975, 49976, 49977, 49978, 49979, 49980, 49981, 49982, 49983, 49984, 49985, 49986, 49987, 49988, 49989, 49990,
50075, 50076, 50077, 50078, 50079, 50080, 50081, 50082, 50083, 50084, 50085, 50086, 50087, 50088, 50089, 50090,
50091, 50092, 50093, 50094, 50095, 50096, 50180, 50181, 50182, 50183, 50184, 50185, 50186, 50187, 50188, 50189,
50190, 50191, 50192, 50193, 50194, 50195, 50196, 50197, 50198, 50199, 50200, 50201, 50202, 50203, 50286, 50287,
50288, 50289, 50290, 50291, 50292, 50293, 50294, 50295, 50296, 50297, 50298, 50299, 50300, 50301, 50302, 50303,
50304, 50305, 50306, 50307, 50308, 50309, 50392, 50393, 50394, 50395, 50396, 50397, 50398, 50399, 50400, 50401,
50402, 50403, 50404, 50405, 50406, 50407, 50408, 50409, 50410, 50411, 50412, 50413, 50414, 50415, 50498, 50499,
50500, 50501, 50502, 50503, 50504, 50505, 50506, 50507, 50508, 50509, 50510, 50511, 50512, 50513, 50514, 50515,
50516, 50517, 50518, 50519, 50520, 50521, 50604, 50605, 50606, 50607, 50608, 50609, 50610, 50611, 50612, 50613,
50614, 50615, 50616, 50617, 50618, 50619, 50620, 50621, 50622, 50623, 50624, 50625, 50626, 50627, 50710, 50711,
50712, 50713, 50714, 50715, 50716, 50717, 50718, 50719, 50720, 50721, 50722, 50723, 50724, 50725, 50726, 50727,
50728, 50729, 50730, 50731, 50732, 50733, 50816, 50817, 50818, 50819, 50820, 50821, 50822, 50823, 50824, 50825,
50826, 50827, 50828, 50829, 50830, 50831, 50832, 50833, 50834, 50835, 50836, 50837, 50838, 50839, 50922, 50923,
** ... 11 like lines cut
*Elset, elset=IFACE5_IN_UPPER
60576, 60577, 60578, 60579, 60580, 60581, 60582, 60583, 60678, 60679, 60680, 60681, 60682, 60683, 60684, 60685,
60686, 60687, 60688, 60689, 60690, 60691, 60692, 60693, 60783, 60784, 60785, 60786, 60787, 60788, 60789, 60790,
60791, 60792, 60793, 60794, 60795, 60796, 60797, 60798, 60799, 60800, 60888, 60889, 60890, 60891, 60892, 60893,
60894, 60895, 60896, 60897, 60898, 60899, 60900, 60901, 60902, 60903, 60904, 60905, 60906, 60907, 60993, 60994,
60995, 60996, 60997, 60998, 60999, 61000, 61001, 61002, 61003, 61004, 61005, 61006, 61007, 61008, 61009, 61010,
61011, 61012, 61013, 61014, 61099, 61100, 61101, 61102, 61103, 61104, 61105, 61106, 61107, 61108, 61109, 61110,
61111, 61112, 61113, 61114, 61115, 61116, 61117, 61118, 61119, 61120, 61205, 61206, 61207, 61208, 61209, 61210,
61211, 61212, 61213, 61214, 61215, 61216, 61217, 61218, 61219, 61220, 61221, 61222, 61223, 61224, 61225, 61226,
61311, 61312, 61313, 61314, 61315, 61316, 61317, 61318, 61319, 61320, 61321, 61322, 61323, 61324, 61325, 61326,
61327, 61328, 61329, 61330, 61331, 61332, 61416, 61417, 61418, 61419, 61420, 61421, 61422, 61423, 61424, 61425,
61426, 61427, 61428, 61429, 61430, 61431, 61432, 61433, 61434, 61435, 61436, 61437, 61438, 61439, 61522, 61523,
61524, 61525, 61526, 61527, 61528, 61529, 61530, 61531, 61532, 61533, 61534, 61535, 61536, 61537, 61538, 61539,
61540, 61541, 61542, 61543, 61544, 61545, 61628, 61629, 61630, 61631, 61632, 61633, 61634, 61635, 61636, 61637,
61638, 61639, 61640, 61641, 61642, 61643, 61644, 61645, 61646, 61647, 61648, 61649, 61650, 61651, 61734, 61735,
61736, 61737, 61738, 61739, 61740, 61741, 61742, 61743, 61744, 61745, 61746, 61747, 61748, 61749, 61750, 61751,
61752, 61753, 61754, 61755, 61756, 61757, 61840, 61841, 61842, 61843, 61844, 61845, 61846, 61847, 61848, 61849,
61850, 61851, 61852, 61853, 61854, 61855, 61856, 61857, 61858, 61859, 61860, 61861, 61862, 61863, 61946, 61947,
61948, 61949, 61950, 61951, 61952, 61953, 61954, 61955, 61956, 61957, 61958, 61959, 61960, 61961, 61962, 61963,
61964, 61965, 61966, 61967, 61968, 61969, 62052, 62053, 62054, 62055, 62056, 62057, 62058, 62059, 62060, 62061,
62062, 62063, 62064, 62065, 62066, 62067, 62068, 62069, 62070, 62071, 62072, 62073, 62074, 62075, 62158, 62159,
** ... 11 like lines cut
*Surface, type=ELEMENT, name=IFACE5_IN_LOWER
IFACE5_IN_LOWER, S2
*Surface, type=ELEMENT, name=IFACE5_IN_UPPER
IFACE5_IN_UPPER, S1
*Elset, elset=IFACE5_OUT_LOWER
44945, 44946, 44947, 44948, 44949, 44950, 44951, 44952, 44953, 44954, 44955, 44956, 44957, 44958, 44959, 44960,
44961, 44962, 44963, 44964, 44965, 44966, 44967, 44968, 44969, 44970, 44971, 44972, 44973, 44974, 44975, 44976,
44977, 44978, 44979, 44980, 44981, 44982, 44983, 44984, 44985, 44986, 44987, 44988, 44989, 44990, 44991, 44992,
44993, 44994, 44995, 44996, 44997, 44998, 44999, 45000, 45001, 45002, 45003, 45004, 45005, 45006, 45007, 45008,
45009, 45010, 45011, 45012, 45013, 45014, 45015, 45016, 45017, 45018, 45019, 45020, 45021, 45022, 45023, 45024,
45025, 45026, 45027, 45028, 45029, 45030, 45031, 45032, 45033, 45034, 45035, 45036, 45037, 45038, 45039, 45040,
45041, 45042, 45043, 45044, 45045, 45046, 45047, 45048, 45049, 45050, 45051, 45052, 45053, 45054, 45055, 45056,
45057, 45058, 45059, 45060, 45061, 45062, 45063, 45064, 45065, 45066, 45067, 45068, 45069, 45070, 45071, 45072,
45073, 45074, 45075, 45076, 45077, 45078, 45079, 45080, 45081, 45082, 45083, 45084, 45085, 45086, 45087, 45088,
45089, 45090, 45091, 45092, 45093, 45094, 45095, 45096, 45097, 45098, 45099, 45100, 45101, 45102, 45103, 45104,
45105, 45106, 45107, 45108, 45109, 45110, 45111, 45112, 45113, 45114, 45115, 45116, 45117, 45118, 45119, 45120,
45121, 45122, 45123, 45124, 45125, 45126, 45127, 45128, 45129, 45130, 45131, 45132, 45133, 45134, 45135, 45136,
45137, 45138, 45139, 45140, 45141, 45142, 45143, 45144, 45145, 45146, 45147, 45148, 45149, 45150, 45151, 45152,
45153, 45154, 45155, 45156, 45157, 45158, 45159, 45160, 45161, 45162, 45163, 45164, 45165, 45166, 45167, 45168,
45169, 45170, 45171, 45172, 45173, 45174, 45175, 45176, 45177, 45178, 45179, 45180, 45181, 45182, 45183, 45184,
45185, 45186, 45187, 45188, 45189, 45190, 45191, 45192, 45193, 45194, 45195, 45196, 45197, 45198, 45199, 45200,
45201, 45202, 45203, 45204, 45205, 45206, 45207, 45208, 45209, 45210, 45211, 45212, 45213, 45214, 45215, 45216,
45217, 45218, 45219, 45220, 45221, 45222, 45223, 45224, 45225, 45226, 45227, 45228, 45229, 45230, 45231, 45232,
45233, 45234, 45235, 45236, 45237, 45238, 45239, 45240, 45241, 45242, 45243, 45244, 45245, 45246, 45247, 45248,
45249, 45250, 45251, 45252, 45253, 45254, 45255, 45256, 45257, 45258, 45259, 45260, 45261, 45262, 45263, 45264,
** ... 652 like lines cut
*Elset, elset=IFACE5_OUT_UPPER
56181, 56182, 56183, 56184, 56185, 56186, 56187, 56188, 56189, 56190, 56191, 56192, 56193, 56194, 56195, 56196,
56197, 56198, 56199, 56200, 56201, 56202, 56203, 56204, 56205, 56206, 56207, 56208, 56209, 56210, 56211, 56212,
56213, 56214, 56215, 56216, 56217, 56218, 56219, 56220, 56221, 56222, 56223, 56224, 56225, 56226, 56227, 56228,
56229, 56230, 56231, 56232, 56233, 56234, 56235, 56236, 56237, 56238, 56239, 56240, 56241, 56242, 56243, 56244,
56245, 56246, 56247, 56248, 56249, 56250, 56251, 56252, 56253, 56254, 56255, 56256, 56257, 56258, 56259, 56260,
56261, 56262, 56263, 56264, 56265, 56266, 56267, 56268, 56269, 56270, 56271, 56272, 56273, 56274, 56275, 56276,
56277, 56278, 56279, 56280, 56281, 56282, 56283, 56284, 56285, 56286, 56287, 56288, 56289, 56290, 56291, 56292,
56293, 56294, 56295, 56296, 56297, 56298, 56299, 56300, 56301, 56302, 56303, 56304, 56305, 56306, 56307, 56308,
56309, 56310, 56311, 56312, 56313, 56314, 56315, 56316, 56317, 56318, 56319, 56320, 56321, 56322, 56323, 56324,
56325, 56326, 56327, 56328, 56329, 56330, 56331, 56332, 56333, 56334, 56335, 56336, 56337, 56338, 56339, 56340,
56341, 56342, 56343, 56344, 56345, 56346, 56347, 56348, 56349, 56350, 56351, 56352, 56353, 56354, 56355, 56356,
56357, 56358, 56359, 56360, 56361, 56362, 56363, 56364, 56365, 56366, 56367, 56368, 56369, 56370, 56371, 56372,
56373, 56374, 56375, 56376, 56377, 56378, 56379, 56380, 56381, 56382, 56383, 56384, 56385, 56386, 56387, 56388,
56389, 56390, 56391, 56392, 56393, 56394, 56395, 56396, 56397, 56398, 56399, 56400, 56401, 56402, 56403, 56404,
56405, 56406, 56407, 56408, 56409, 56410, 56411, 56412, 56413, 56414, 56415, 56416, 56417, 56418, 56419, 56420,
56421, 56422, 56423, 56424, 56425, 56426, 56427, 56428, 56429, 56430, 56431, 56432, 56433, 56434, 56435, 56436,
56437, 56438, 56439, 56440, 56441, 56442, 56443, 56444, 56445, 56446, 56447, 56448, 56449, 56450, 56451, 56452,
56453, 56454, 56455, 56456, 56457, 56458, 56459, 56460, 56461, 56462, 56463, 56464, 56465, 56466, 56467, 56468,
56469, 56470, 56471, 56472, 56473, 56474, 56475, 56476, 56477, 56478, 56479, 56480, 56481, 56482, 56483, 56484,
56485, 56486, 56487, 56488, 56489, 56490, 56491, 56492, 56493, 56494, 56495, 56496, 56497, 56498, 56499, 56500,
** ... 652 like lines cut
*Surface, type=ELEMENT, name=IFACE5_OUT_LOWER
IFACE5_OUT_LOWER, S2
*Surface, type=ELEMENT, name=IFACE5_OUT_UPPER
IFACE5_OUT_UPPER, S1
*Elset, elset=IFACE6_IN_LOWER
60576, 60577, 60578, 60579, 60580, 60581, 60582, 60583, 60678, 60679, 60680, 60681, 60682, 60683, 60684, 60685,
60686, 60687, 60688, 60689, 60690, 60691, 60692, 60693, 60783, 60784, 60785, 60786, 60787, 60788, 60789, 60790,
60791, 60792, 60793, 60794, 60795, 60796, 60797, 60798, 60799, 60800, 60888, 60889, 60890, 60891, 60892, 60893,
60894, 60895, 60896, 60897, 60898, 60899, 60900, 60901, 60902, 60903, 60904, 60905, 60906, 60907, 60993, 60994,
60995, 60996, 60997, 60998, 60999, 61000, 61001, 61002, 61003, 61004, 61005, 61006, 61007, 61008, 61009, 61010,
61011, 61012, 61013, 61014, 61099, 61100, 61101, 61102, 61103, 61104, 61105, 61106, 61107, 61108, 61109, 61110,
61111, 61112, 61113, 61114, 61115, 61116, 61117, 61118, 61119, 61120, 61205, 61206, 61207, 61208, 61209, 61210,
61211, 61212, 61213, 61214, 61215, 61216, 61217, 61218, 61219, 61220, 61221, 61222, 61223, 61224, 61225, 61226,
61311, 61312, 61313, 61314, 61315, 61316, 61317, 61318, 61319, 61320, 61321, 61322, 61323, 61324, 61325, 61326,
61327, 61328, 61329, 61330, 61331, 61332, 61416, 61417, 61418, 61419, 61420, 61421, 61422, 61423, 61424, 61425,
61426, 61427, 61428, 61429, 61430, 61431, 61432, 61433, 61434, 61435, 61436, 61437, 61438, 61439, 61522, 61523,
61524, 61525, 61526, 61527, 61528, 61529, 61530, 61531, 61532, 61533, 61534, 61535, 61536, 61537, 61538, 61539,
61540, 61541, 61542, 61543, 61544, 61545, 61628, 61629, 61630, 61631, 61632, 61633, 61634, 61635, 61636, 61637,
61638, 61639, 61640, 61641, 61642, 61643, 61644, 61645, 61646, 61647, 61648, 61649, 61650, 61651, 61734, 61735,
61736, 61737, 61738, 61739, 61740, 61741, 61742, 61743, 61744, 61745, 61746, 61747, 61748, 61749, 61750, 61751,
61752, 61753, 61754, 61755, 61756, 61757, 61840, 61841, 61842, 61843, 61844, 61845, 61846, 61847, 61848, 61849,
61850, 61851, 61852, 61853, 61854, 61855, 61856, 61857, 61858, 61859, 61860, 61861, 61862, 61863, 61946, 61947,
61948, 61949, 61950, 61951, 61952, 61953, 61954, 61955, 61956, 61957, 61958, 61959, 61960, 61961, 61962, 61963,
61964, 61965, 61966, 61967, 61968, 61969, 62052, 62053, 62054, 62055, 62056, 62057, 62058, 62059, 62060, 62061,
62062, 62063, 62064, 62065, 62066, 62067, 62068, 62069, 62070, 62071, 62072, 62073, 62074, 62075, 62158, 62159,
** ... 11 like lines cut
*Elset, elset=IFACE6_IN_UPPER
71812, 71813, 71814, 71815, 71816, 71817, 71818, 71819, 71914, 71915, 71916, 71917, 71918, 71919, 71920, 71921,
71922, 71923, 71924, 71925, 71926, 71927, 71928, 71929, 72019, 72020, 72021, 72022, 72023, 72024, 72025, 72026,
72027, 72028, 72029, 72030, 72031, 72032, 72033, 72034, 72035, 72036, 72124, 72125, 72126, 72127, 72128, 72129,
72130, 72131, 72132, 72133, 72134, 72135, 72136, 72137, 72138, 72139, 72140, 72141, 72142, 72143, 72229, 72230,
72231, 72232, 72233, 72234, 72235, 72236, 72237, 72238, 72239, 72240, 72241, 72242, 72243, 72244, 72245, 72246,
72247, 72248, 72249, 72250, 72335, 72336, 72337, 72338, 72339, 72340, 72341, 72342, 72343, 72344, 72345, 72346,
72347, 72348, 72349, 72350, 72351, 72352, 72353, 72354, 72355, 72356, 72441, 72442, 72443, 72444, 72445, 72446,
72447, 72448, 72449, 72450, 72451, 72452, 72453, 72454, 72455, 72456, 72457, 72458, 72459, 72460, 72461, 72462,
72547, 72548, 72549, 72550, 72551, 72552, 72553, 72554, 72555, 72556, 72557, 72558, 72559, 72560, 72561, 72562,
72563, 72564, 72565, 72566, 72567, 72568, 72652, 72653, 72654, 72655, 72656, 72657, 72658, 72659, 72660, 72661,
72662, 72663, 72664, 72665, 72666, 72667, 72668, 72669, 72670, 72671, 72672, 72673, 72674, 72675, 72758, 72759,
72760, 72761, 72762, 72763, 72764, 72765, 72766, 72767, 72768, 72769, 72770, 72771, 72772, 72773, 72774, 72775,
72776, 72777, 72778, 72779, 72780, 72781, 72864, 72865, 72866, 72867, 72868, 72869, 72870, 72871, 72872, 72873,
72874, 72875, 72876, 72877, 72878, 72879, 72880, 72881, 72882, 72883, 72884, 72885, 72886, 72887, 72970, 72971,
72972, 72973, 72974, 72975, 72976, 72977, 72978, 72979, 72980, 72981, 72982, 72983, 72984, 72985, 72986, 72987,
72988, 72989, 72990, 72991, 72992, 72993, 73076, 73077, 73078, 73079, 73080, 73081, 73082, 73083, 73084, 73085,
73086, 73087, 73088, 73089, 73090, 73091, 73092, 73093, 73094, 73095, 73096, 73097, 73098, 73099, 73182, 73183,
73184, 73185, 73186, 73187, 73188, 73189, 73190, 73191, 73192, 73193, 73194, 73195, 73196, 73197, 73198, 73199,
73200, 73201, 73202, 73203, 73204, 73205, 73288, 73289, 73290, 73291, 73292, 73293, 73294, 73295, 73296, 73297,
73298, 73299, 73300, 73301, 73302, 73303, 73304, 73305, 73306, 73307, 73308, 73309, 73310, 73311, 73394, 73395,
** ... 11 like lines cut
*Surface, type=ELEMENT, name=IFACE6_IN_LOWER
IFACE6_IN_LOWER, S2
*Surface, type=ELEMENT, name=IFACE6_IN_UPPER
IFACE6_IN_UPPER, S1
*Elset, elset=IFACE6_OUT_LOWER
56181, 56182, 56183, 56184, 56185, 56186, 56187, 56188, 56189, 56190, 56191, 56192, 56193, 56194, 56195, 56196,
56197, 56198, 56199, 56200, 56201, 56202, 56203, 56204, 56205, 56206, 56207, 56208, 56209, 56210, 56211, 56212,
56213, 56214, 56215, 56216, 56217, 56218, 56219, 56220, 56221, 56222, 56223, 56224, 56225, 56226, 56227, 56228,
56229, 56230, 56231, 56232, 56233, 56234, 56235, 56236, 56237, 56238, 56239, 56240, 56241, 56242, 56243, 56244,
56245, 56246, 56247, 56248, 56249, 56250, 56251, 56252, 56253, 56254, 56255, 56256, 56257, 56258, 56259, 56260,
56261, 56262, 56263, 56264, 56265, 56266, 56267, 56268, 56269, 56270, 56271, 56272, 56273, 56274, 56275, 56276,
56277, 56278, 56279, 56280, 56281, 56282, 56283, 56284, 56285, 56286, 56287, 56288, 56289, 56290, 56291, 56292,
56293, 56294, 56295, 56296, 56297, 56298, 56299, 56300, 56301, 56302, 56303, 56304, 56305, 56306, 56307, 56308,
56309, 56310, 56311, 56312, 56313, 56314, 56315, 56316, 56317, 56318, 56319, 56320, 56321, 56322, 56323, 56324,
56325, 56326, 56327, 56328, 56329, 56330, 56331, 56332, 56333, 56334, 56335, 56336, 56337, 56338, 56339, 56340,
56341, 56342, 56343, 56344, 56345, 56346, 56347, 56348, 56349, 56350, 56351, 56352, 56353, 56354, 56355, 56356,
56357, 56358, 56359, 56360, 56361, 56362, 56363, 56364, 56365, 56366, 56367, 56368, 56369, 56370, 56371, 56372,
56373, 56374, 56375, 56376, 56377, 56378, 56379, 56380, 56381, 56382, 56383, 56384, 56385, 56386, 56387, 56388,
56389, 56390, 56391, 56392, 56393, 56394, 56395, 56396, 56397, 56398, 56399, 56400, 56401, 56402, 56403, 56404,
56405, 56406, 56407, 56408, 56409, 56410, 56411, 56412, 56413, 56414, 56415, 56416, 56417, 56418, 56419, 56420,
56421, 56422, 56423, 56424, 56425, 56426, 56427, 56428, 56429, 56430, 56431, 56432, 56433, 56434, 56435, 56436,
56437, 56438, 56439, 56440, 56441, 56442, 56443, 56444, 56445, 56446, 56447, 56448, 56449, 56450, 56451, 56452,
56453, 56454, 56455, 56456, 56457, 56458, 56459, 56460, 56461, 56462, 56463, 56464, 56465, 56466, 56467, 56468,
56469, 56470, 56471, 56472, 56473, 56474, 56475, 56476, 56477, 56478, 56479, 56480, 56481, 56482, 56483, 56484,
56485, 56486, 56487, 56488, 56489, 56490, 56491, 56492, 56493, 56494, 56495, 56496, 56497, 56498, 56499, 56500,
** ... 652 like lines cut
*Elset, elset=IFACE6_OUT_UPPER
67417, 67418, 67419, 67420, 67421, 67422, 67423, 67424, 67425, 67426, 67427, 67428, 67429, 67430, 67431, 67432,
67433, 67434, 67435, 67436, 67437, 67438, 67439, 67440, 67441, 67442, 67443, 67444, 67445, 67446, 67447, 67448,
67449, 67450, 67451, 67452, 67453, 67454, 67455, 67456, 67457, 67458, 67459, 67460, 67461, 67462, 67463, 67464,
67465, 67466, 67467, 67468, 67469, 67470, 67471, 67472, 67473, 67474, 67475, 67476, 67477, 67478, 67479, 67480,
67481, 67482, 67483, 67484, 67485, 67486, 67487, 67488, 67489, 67490, 67491, 67492, 67493, 67494, 67495, 67496,
67497, 67498, 67499, 67500, 67501, 67502, 67503, 67504, 67505, 67506, 67507, 67508, 67509, 67510, 67511, 67512,
67513, 67514, 67515, 67516, 67517, 67518, 67519, 67520, 67521, 67522, 67523, 67524, 67525, 67526, 67527, 67528,
67529, 67530, 67531, 67532, 67533, 67534, 67535, 67536, 67537, 67538, 67539, 67540, 67541, 67542, 67543, 67544,
67545, 67546, 67547, 67548, 67549, 67550, 67551, 67552, 67553, 67554, 67555, 67556, 67557, 67558, 67559, 67560,
67561, 67562, 67563, 67564, 67565, 67566, 67567, 67568, 67569, 67570, 67571, 67572, 67573, 67574, 67575, 67576,
67577, 67578, 67579, 67580, 67581, 67582, 67583, 67584, 67585, 67586, 67587, 67588, 67589, 67590, 67591, 67592,
67593, 67594, 67595, 67596, 67597, 67598, 67599, 67600, 67601, 67602, 67603, 67604, 67605, 67606, 67607, 67608,
67609, 67610, 67611, 67612, 67613, 67614, 67615, 67616, 67617, 67618, 67619, 67620, 67621, 67622, 67623, 67624,
67625, 67626, 67627, 67628, 67629, 67630, 67631, 67632, 67633, 67634, 67635, 67636, 67637, 67638, 67639, 67640,
67641, 67642, 67643, 67644, 67645, 67646, 67647, 67648, 67649, 67650, 67651, 67652, 67653, 67654, 67655, 67656,
67657, 67658, 67659, 67660, 67661, 67662, 67663, 67664, 67665, 67666, 67667, 67668, 67669, 67670, 67671, 67672,
67673, 67674, 67675, 67676, 67677, 67678, 67679, 67680, 67681, 67682, 67683, 67684, 67685, 67686, 67687, 67688,
67689, 67690, 67691, 67692, 67693, 67694, 67695, 67696, 67697, 67698, 67699, 67700, 67701, 67702, 67703, 67704,
67705, 67706, 67707, 67708, 67709, 67710, 67711, 67712, 67713, 67714, 67715, 67716, 67717, 67718, 67719, 67720,
67721, 67722, 67723, 67724, 67725, 67726, 67727, 67728, 67729, 67730, 67731, 67732, 67733, 67734, 67735, 67736,
** ... 652 like lines cut
*Surface, type=ELEMENT, name=IFACE6_OUT_LOWER
IFACE6_OUT_LOWER, S2
*Surface, type=ELEMENT, name=IFACE6_OUT_UPPER
IFACE6_OUT_UPPER, S1
*Elset, elset=IFACE7_IN_LOWER
71812, 71813, 71814, 71815, 71816, 71817, 71818, 71819, 71914, 71915, 71916, 71917, 71918, 71919, 71920, 71921,
71922, 71923, 71924, 71925, 71926, 71927, 71928, 71929, 72019, 72020, 72021, 72022, 72023, 72024, 72025, 72026,
72027, 72028, 72029, 72030, 72031, 72032, 72033, 72034, 72035, 72036, 72124, 72125, 72126, 72127, 72128, 72129,
72130, 72131, 72132, 72133, 72134, 72135, 72136, 72137, 72138, 72139, 72140, 72141, 72142, 72143, 72229, 72230,
72231, 72232, 72233, 72234, 72235, 72236, 72237, 72238, 72239, 72240, 72241, 72242, 72243, 72244, 72245, 72246,
72247, 72248, 72249, 72250, 72335, 72336, 72337, 72338, 72339, 72340, 72341, 72342, 72343, 72344, 72345, 72346,
72347, 72348, 72349, 72350, 72351, 72352, 72353, 72354, 72355, 72356, 72441, 72442, 72443, 72444, 72445, 72446,
72447, 72448, 72449, 72450, 72451, 72452, 72453, 72454, 72455, 72456, 72457, 72458, 72459, 72460, 72461, 72462,
72547, 72548, 72549, 72550, 72551, 72552, 72553, 72554, 72555, 72556, 72557, 72558, 72559, 72560, 72561, 72562,
72563, 72564, 72565, 72566, 72567, 72568, 72652, 72653, 72654, 72655, 72656, 72657, 72658, 72659, 72660, 72661,
72662, 72663, 72664, 72665, 72666, 72667, 72668, 72669, 72670, 72671, 72672, 72673, 72674, 72675, 72758, 72759,
72760, 72761, 72762, 72763, 72764, 72765, 72766, 72767, 72768, 72769, 72770, 72771, 72772, 72773, 72774, 72775,
72776, 72777, 72778, 72779, 72780, 72781, 72864, 72865, 72866, 72867, 72868, 72869, 72870, 72871, 72872, 72873,
72874, 72875, 72876, 72877, 72878, 72879, 72880, 72881, 72882, 72883, 72884, 72885, 72886, 72887, 72970, 72971,
72972, 72973, 72974, 72975, 72976, 72977, 72978, 72979, 72980, 72981, 72982, 72983, 72984, 72985, 72986, 72987,
72988, 72989, 72990, 72991, 72992, 72993, 73076, 73077, 73078, 73079, 73080, 73081, 73082, 73083, 73084, 73085,
73086, 73087, 73088, 73089, 73090, 73091, 73092, 73093, 73094, 73095, 73096, 73097, 73098, 73099, 73182, 73183,
73184, 73185, 73186, 73187, 73188, 73189, 73190, 73191, 73192, 73193, 73194, 73195, 73196, 73197, 73198, 73199,
73200, 73201, 73202, 73203, 73204, 73205, 73288, 73289, 73290, 73291, 73292, 73293, 73294, 73295, 73296, 73297,
73298, 73299, 73300, 73301, 73302, 73303, 73304, 73305, 73306, 73307, 73308, 73309, 73310, 73311, 73394, 73395,
** ... 11 like lines cut
*Elset, elset=IFACE7_IN_UPPER
83048, 83049, 83050, 83051, 83052, 83053, 83054, 83055, 83150, 83151, 83152, 83153, 83154, 83155, 83156, 83157,
83158, 83159, 83160, 83161, 83162, 83163, 83164, 83165, 83255, 83256, 83257, 83258, 83259, 83260, 83261, 83262,
83263, 83264, 83265, 83266, 83267, 83268, 83269, 83270, 83271, 83272, 83360, 83361, 83362, 83363, 83364, 83365,
83366, 83367, 83368, 83369, 83370, 83371, 83372, 83373, 83374, 83375, 83376, 83377, 83378, 83379, 83465, 83466,
83467, 83468, 83469, 83470, 83471, 83472, 83473, 83474, 83475, 83476, 83477, 83478, 83479, 83480, 83481, 83482,
83483, 83484, 83485, 83486, 83571, 83572, 83573, 83574, 83575, 83576, 83577, 83578, 83579, 83580, 83581, 83582,
83583, 83584, 83585, 83586, 83587, 83588, 83589, 83590, 83591, 83592, 83677, 83678, 83679, 83680, 83681, 83682,
83683, 83684, 83685, 83686, 83687, 83688, 83689, 83690, 83691, 83692, 83693, 83694, 83695, 83696, 83697, 83698,
83783, 83784, 83785, 83786, 83787, 83788, 83789, 83790, 83791, 83792, 83793, 83794, 83795, 83796, 83797, 83798,
83799, 83800, 83801, 83802, 83803, 83804, 83888, 83889, 83890, 83891, 83892, 83893, 83894, 83895, 83896, 83897,
83898, 83899, 83900, 83901, 83902, 83903, 83904, 83905, 83906, 83907, 83908, 83909, 83910, 83911, 83994, 83995,
83996, 83997, 83998, 83999, 84000, 84001, 84002, 84003, 84004, 84005, 84006, 84007, 84008, 84009, 84010, 84011,
84012, 84013, 84014, 84015, 84016, 84017, 84100, 84101, 84102, 84103, 84104, 84105, 84106, 84107, 84108, 84109,
84110, 84111, 84112, 84113, 84114, 84115, 84116, 84117, 84118, 84119, 84120, 84121, 84122, 84123, 84206, 84207,
84208, 84209, 84210, 84211, 84212, 84213, 84214, 84215, 84216, 84217, 84218, 84219, 84220, 84221, 84222, 84223,
84224, 84225, 84226, 84227, 84228, 84229, 84312, 84313, 84314, 84315, 84316, 84317, 84318, 84319, 84320, 84321,
84322, 84323, 84324, 84325, 84326, 84327, 84328, 84329, 84330, 84331, 84332, 84333, 84334, 84335, 84418, 84419,
84420, 84421, 84422, 84423, 84424, 84425, 84426, 84427, 84428, 84429, 84430, 84431, 84432, 84433, 84434, 84435,
84436, 84437, 84438, 84439, 84440, 84441, 84524, 84525, 84526, 84527, 84528, 84529, 84530, 84531, 84532, 84533,
84534, 84535, 84536, 84537, 84538, 84539, 84540, 84541, 84542, 84543, 84544, 84545, 84546, 84547, 84630, 84631,
** ... 11 like lines cut
*Surface, type=ELEMENT, name=IFACE7_IN_LOWER
IFACE7_IN_LOWER, S2
*Surface, type=ELEMENT, name=IFACE7_IN_UPPER
IFACE7_IN_UPPER, S1
*Elset, elset=IFACE7_OUT_LOWER
67417, 67418, 67419, 67420, 67421, 67422, 67423, 67424, 67425, 67426, 67427, 67428, 67429, 67430, 67431, 67432,
67433, 67434, 67435, 67436, 67437, 67438, 67439, 67440, 67441, 67442, 67443, 67444, 67445, 67446, 67447, 67448,
67449, 67450, 67451, 67452, 67453, 67454, 67455, 67456, 67457, 67458, 67459, 67460, 67461, 67462, 67463, 67464,
67465, 67466, 67467, 67468, 67469, 67470, 67471, 67472, 67473, 67474, 67475, 67476, 67477, 67478, 67479, 67480,
67481, 67482, 67483, 67484, 67485, 67486, 67487, 67488, 67489, 67490, 67491, 67492, 67493, 67494, 67495, 67496,
67497, 67498, 67499, 67500, 67501, 67502, 67503, 67504, 67505, 67506, 67507, 67508, 67509, 67510, 67511, 67512,
67513, 67514, 67515, 67516, 67517, 67518, 67519, 67520, 67521, 67522, 67523, 67524, 67525, 67526, 67527, 67528,
67529, 67530, 67531, 67532, 67533, 67534, 67535, 67536, 67537, 67538, 67539, 67540, 67541, 67542, 67543, 67544,
67545, 67546, 67547, 67548, 67549, 67550, 67551, 67552, 67553, 67554, 67555, 67556, 67557, 67558, 67559, 67560,
67561, 67562, 67563, 67564, 67565, 67566, 67567, 67568, 67569, 67570, 67571, 67572, 67573, 67574, 67575, 67576,
67577, 67578, 67579, 67580, 67581, 67582, 67583, 67584, 67585, 67586, 67587, 67588, 67589, 67590, 67591, 67592,
67593, 67594, 67595, 67596, 67597, 67598, 67599, 67600, 67601, 67602, 67603, 67604, 67605, 67606, 67607, 67608,
67609, 67610, 67611, 67612, 67613, 67614, 67615, 67616, 67617, 67618, 67619, 67620, 67621, 67622, 67623, 67624,
67625, 67626, 67627, 67628, 67629, 67630, 67631, 67632, 67633, 67634, 67635, 67636, 67637, 67638, 67639, 67640,
67641, 67642, 67643, 67644, 67645, 67646, 67647, 67648, 67649, 67650, 67651, 67652, 67653, 67654, 67655, 67656,
67657, 67658, 67659, 67660, 67661, 67662, 67663, 67664, 67665, 67666, 67667, 67668, 67669, 67670, 67671, 67672,
67673, 67674, 67675, 67676, 67677, 67678, 67679, 67680, 67681, 67682, 67683, 67684, 67685, 67686, 67687, 67688,
67689, 67690, 67691, 67692, 67693, 67694, 67695, 67696, 67697, 67698, 67699, 67700, 67701, 67702, 67703, 67704,
67705, 67706, 67707, 67708, 67709, 67710, 67711, 67712, 67713, 67714, 67715, 67716, 67717, 67718, 67719, 67720,
67721, 67722, 67723, 67724, 67725, 67726, 67727, 67728, 67729, 67730, 67731, 67732, 67733, 67734, 67735, 67736,
** ... 652 like lines cut
*Elset, elset=IFACE7_OUT_UPPER
78653, 78654, 78655, 78656, 78657, 78658, 78659, 78660, 78661, 78662, 78663, 78664, 78665, 78666, 78667, 78668,
78669, 78670, 78671, 78672, 78673, 78674, 78675, 78676, 78677, 78678, 78679, 78680, 78681, 78682, 78683, 78684,
78685, 78686, 78687, 78688, 78689, 78690, 78691, 78692, 78693, 78694, 78695, 78696, 78697, 78698, 78699, 78700,
78701, 78702, 78703, 78704, 78705, 78706, 78707, 78708, 78709, 78710, 78711, 78712, 78713, 78714, 78715, 78716,
78717, 78718, 78719, 78720, 78721, 78722, 78723, 78724, 78725, 78726, 78727, 78728, 78729, 78730, 78731, 78732,
78733, 78734, 78735, 78736, 78737, 78738, 78739, 78740, 78741, 78742, 78743, 78744, 78745, 78746, 78747, 78748,
78749, 78750, 78751, 78752, 78753, 78754, 78755, 78756, 78757, 78758, 78759, 78760, 78761, 78762, 78763, 78764,
78765, 78766, 78767, 78768, 78769, 78770, 78771, 78772, 78773, 78774, 78775, 78776, 78777, 78778, 78779, 78780,
78781, 78782, 78783, 78784, 78785, 78786, 78787, 78788, 78789, 78790, 78791, 78792, 78793, 78794, 78795, 78796,
78797, 78798, 78799, 78800, 78801, 78802, 78803, 78804, 78805, 78806, 78807, 78808, 78809, 78810, 78811, 78812,
78813, 78814, 78815, 78816, 78817, 78818, 78819, 78820, 78821, 78822, 78823, 78824, 78825, 78826, 78827, 78828,
78829, 78830, 78831, 78832, 78833, 78834, 78835, 78836, 78837, 78838, 78839, 78840, 78841, 78842, 78843, 78844,
78845, 78846, 78847, 78848, 78849, 78850, 78851, 78852, 78853, 78854, 78855, 78856, 78857, 78858, 78859, 78860,
78861, 78862, 78863, 78864, 78865, 78866, 78867, 78868, 78869, 78870, 78871, 78872, 78873, 78874, 78875, 78876,
78877, 78878, 78879, 78880, 78881, 78882, 78883, 78884, 78885, 78886, 78887, 78888, 78889, 78890, 78891, 78892,
78893, 78894, 78895, 78896, 78897, 78898, 78899, 78900, 78901, 78902, 78903, 78904, 78905, 78906, 78907, 78908,
78909, 78910, 78911, 78912, 78913, 78914, 78915, 78916, 78917, 78918, 78919, 78920, 78921, 78922, 78923, 78924,
78925, 78926, 78927, 78928, 78929, 78930, 78931, 78932, 78933, 78934, 78935, 78936, 78937, 78938, 78939, 78940,
78941, 78942, 78943, 78944, 78945, 78946, 78947, 78948, 78949, 78950, 78951, 78952, 78953, 78954, 78955, 78956,
78957, 78958, 78959, 78960, 78961, 78962, 78963, 78964, 78965, 78966, 78967, 78968, 78969, 78970, 78971, 78972,
** ... 652 like lines cut
*Surface, type=ELEMENT, name=IFACE7_OUT_LOWER
IFACE7_OUT_LOWER, S2
*Surface, type=ELEMENT, name=IFACE7_OUT_UPPER
IFACE7_OUT_UPPER, S1
*Nset, nset=SENSOR_ACT
177427,
*Elset, elset=SENSOR_ACT
84291,
*Nset, nset=SENSOR_R1
177485,
*Elset, elset=SENSOR_R1
84349,
*Nset, nset=SENSOR_R2
177497,
*Elset, elset=SENSOR_R2
84361,
*Nset, nset=SENSOR_R3
173929,
*Elset, elset=SENSOR_R3
80826,
*Nset, nset=SENSOR_R4
180991,
*Elset, elset=SENSOR_R4
87822,
*Nset, nset=SENSOR_R5
173962,
*Elset, elset=SENSOR_R5
80859,
*Nset, nset=SENSOR_R6
181024,
*Elset, elset=SENSOR_R6
87855,
*Nset, nset=SENSOR_R7
173896,
*Elset, elset=SENSOR_R7
80793,
*Nset, nset=SENSOR_R8
180958,
*Elset, elset=SENSOR_R8
87789,
*Elset, elset=PATCH
83124, 83125, 83229, 83230, 83231, 83335, 83336, 83337, 83338, 83441, 83442, 83443, 83444, 83547, 83548, 83549,
83550, 83652, 83653, 83654, 83655, 83656, 83758, 83759, 83760, 83761, 83762, 83864, 83865, 83866, 83867, 83868,
83970, 83971, 83972, 83973, 83974, 84076, 84077, 84078, 84079, 84080, 84182, 84183, 84184, 84185, 84186, 84288,
84289, 84290, 84291, 84292, 84394, 84395, 84396, 84397, 84398, 84500, 84501, 84502, 84503, 84504, 84606, 84607,
84608, 84609, 84610, 84712, 84713, 84714, 84715, 84716, 84818, 84819, 84820, 84821, 84822, 84925, 84926, 84927,
84928, 85031, 85032, 85033, 85034, 85137, 85138, 85139, 85140, 85243, 85244, 85245, 85350, 85351,
*Surface, type=ELEMENT, name=PATCH
PATCH, S2
*Nset, nset=FRAME
1, 2, 3, 4, 5, 6, 7, 8, 9, 10, 11, 12, 13, 14, 15, 16,
17, 18, 19, 20, 21, 22, 23, 24, 25, 26, 27, 28, 29, 30, 31, 32,
33, 34, 35, 36, 37, 38, 39, 40, 41, 42, 43, 44, 45, 46, 47, 48,
49, 50, 51, 52, 53, 54, 55, 56, 57, 58, 59, 60, 61, 62, 63, 64,
65, 66, 67, 68, 69, 70, 71, 72, 73, 74, 75, 76, 77, 78, 79, 80,
81, 82, 83, 84, 85, 86, 87, 88, 89, 90, 91, 92, 93, 94, 95, 96,
97, 98, 99, 100, 101, 102, 103, 104, 105, 106, 107, 108, 109, 110, 111, 112,
113, 114, 115, 116, 117, 118, 119, 120, 121, 122, 123, 124, 125, 126, 127, 128,
129, 130, 131, 132, 133, 134, 135, 136, 137, 138, 139, 140, 141, 142, 143, 144,
145, 146, 147, 148, 149, 150, 151, 152, 153, 154, 155, 156, 157, 158, 159, 160,
161, 162, 163, 164, 165, 166, 167, 168, 169, 170, 171, 172, 173, 174, 175, 176,
177, 178, 179, 180, 181, 182, 183, 184, 185, 186, 187, 188, 189, 190, 191, 192,
193, 194, 195, 196, 197, 198, 199, 200, 201, 202, 203, 204, 205, 206, 207, 208,
209, 210, 211, 212, 213, 214, 215, 216, 217, 218, 219, 220, 221, 222, 223, 224,
225, 226, 227, 228, 229, 230, 231, 232, 233, 234, 235, 236, 237, 238, 239, 240,
241, 242, 243, 244, 245, 246, 247, 248, 249, 250, 251, 252, 253, 254, 255, 256,
257, 258, 259, 260, 261, 262, 263, 264, 265, 266, 267, 268, 269, 270, 271, 272,
273, 274, 275, 276, 277, 278, 279, 280, 281, 282, 283, 284, 285, 286, 287, 288,
289, 290, 291, 292, 293, 294, 295, 296, 297, 298, 299, 300, 301, 302, 303, 304,
305, 306, 307, 308, 309, 310, 311, 312, 313, 314, 315, 316, 317, 318, 319, 320,
** ... 3148 like lines cut
*Nset, nset=TOPCENTRE
177460,
*Orientation, name=Fibre
1., 0., 0., 0., 1., 0.
3, 0.
*Section Controls, name=SC, max degradation=1.0
*Solid Section, elset=PLIES, material=PLY, orientation=Fibre, controls=SC
,
*Material, name=PLY
*Density
1650.0,
*Elastic, type=ENGINEERING CONSTANTS
1.281e11, 8.2e9, 8.2e9, 0.27, 0.27, 0.20, 4.7e9, 4.7e9
3.44e9,
** Diagnostic only: the failure index locates intralaminar failure but,
** as check_damage_degradation.py shows, it does not degrade a solid
** element. The stiffness reduction comes from the cohesive interfaces.
*Damage Initiation, criterion=MAX STRESS
1.5e9, 1.2e9, 5.0e7, 2.0e8, 5.0e7, 2.0e8, 7.0e7, 7.0e7,
5.0e7
*Damage Evolution, type=ENERGY
9.16e4
** Interface: contact-based cohesive behaviour. There is no cohesive
** element and therefore no cohesive material; the traction-separation
** law, its initiation criterion and its evolution all live on the
** surface interaction. The penalty stiffness used to be left to the
** Abaqus default on the argument that none then had to be invented, which
** turned out to be the wrong call: on the refined mesh the interface mode
** that default creates is too stiff for the stable increment and the wave
** solution drifts asymmetric. --cohesive-stiffness ply sets it from the
** ply moduli instead. See cohesive_stiffness() above.
*Surface Interaction, name=DELAM
*Cohesive Behavior
2.37e+13, 2.37e+13, 2.37e+13
*Damage Initiation, criterion=QUADS
59.5e6, 59.5e6, 59.5e6
*Damage Evolution, type=ENERGY, mixed mode behavior=BK, power=2.284
490.0, 1060.0, 1060.0
*Surface Interaction, name=FRIC
*Friction
0.3,
*Contact, op=NEW
*Contact Inclusions
IFACE1_IN_LOWER, IFACE1_IN_UPPER
IFACE1_OUT_LOWER, IFACE1_OUT_UPPER
IFACE2_IN_LOWER, IFACE2_IN_UPPER
IFACE2_OUT_LOWER, IFACE2_OUT_UPPER
IFACE3_IN_LOWER, IFACE3_IN_UPPER
IFACE3_OUT_LOWER, IFACE3_OUT_UPPER
IFACE4_IN_LOWER, IFACE4_IN_UPPER
IFACE4_OUT_LOWER, IFACE4_OUT_UPPER
IFACE5_IN_LOWER, IFACE5_IN_UPPER
IFACE5_OUT_LOWER, IFACE5_OUT_UPPER
IFACE6_IN_LOWER, IFACE6_IN_UPPER
IFACE6_OUT_LOWER, IFACE6_OUT_UPPER
IFACE7_IN_LOWER, IFACE7_IN_UPPER
IFACE7_OUT_LOWER, IFACE7_OUT_UPPER
** The blanket friction assignment comes first and the interface pairs
** after it, because a later assignment takes precedence over an earlier
** one for the same pair.
*Contact Property Assignment
 ,  , FRIC
IFACE1_IN_UPPER, IFACE1_IN_LOWER, FRIC
IFACE1_OUT_UPPER, IFACE1_OUT_LOWER, DELAM
IFACE2_IN_UPPER, IFACE2_IN_LOWER, FRIC
IFACE2_OUT_UPPER, IFACE2_OUT_LOWER, DELAM
IFACE3_IN_UPPER, IFACE3_IN_LOWER, FRIC
IFACE3_OUT_UPPER, IFACE3_OUT_LOWER, DELAM
IFACE4_IN_UPPER, IFACE4_IN_LOWER, FRIC
IFACE4_OUT_UPPER, IFACE4_OUT_LOWER, DELAM
IFACE5_IN_UPPER, IFACE5_IN_LOWER, FRIC
IFACE5_OUT_UPPER, IFACE5_OUT_LOWER, DELAM
IFACE6_IN_UPPER, IFACE6_IN_LOWER, FRIC
IFACE6_OUT_UPPER, IFACE6_OUT_LOWER, DELAM
IFACE7_IN_UPPER, IFACE7_IN_LOWER, FRIC
IFACE7_OUT_UPPER, IFACE7_OUT_LOWER, DELAM
*Amplitude, name=BURST, time=STEP TIME
0, 0
5e-07, 0.0003048872
1e-06, 0.002317431
1.5e-06, 0.007164958
2e-06, 0.01493959
2.5e-06, 0.02447174
3e-06, 0.03339327
3.5e-06, 0.03849827
4e-06, 0.03635255
4.5e-06, 0.02405266
5e-06, 1.169434e-17
5.5e-06, -0.03545765
6e-06, -0.07965412
6.5e-06, -0.1276034
7e-06, -0.1724151
7.5e-06, -0.2061074
8e-06, -0.2207275
8.5e-06, -0.209635
9e-06, -0.1687592
9.5e-06, -0.09763013
** ... 81 like lines cut
*Step, name=WAVE, nlgeom=NO
*Dynamic, Explicit
, 0.00025
*Bulk Viscosity
0.06, 1.2
*Boundary
FRAME, ENCASTRE
*Dsload, op=NEW, amplitude=BURST
PATCH, P, 3.535697e+05
*Output, field, number interval=25
*Node Output
U, V
*Output, history, time interval=5e-07
*Node Output, nset=SENSOR_ACT
U3, V3
*Element Output, elset=SENSOR_ACT
E11, E22, E12
*Node Output, nset=SENSOR_R1
U3, V3
*Element Output, elset=SENSOR_R1
E11, E22, E12
*Node Output, nset=SENSOR_R2
U3, V3
*Element Output, elset=SENSOR_R2
E11, E22, E12
*Node Output, nset=SENSOR_R3
U3, V3
*Element Output, elset=SENSOR_R3
E11, E22, E12
*Node Output, nset=SENSOR_R4
U3, V3
*Element Output, elset=SENSOR_R4
E11, E22, E12
*Node Output, nset=SENSOR_R5
U3, V3
*Element Output, elset=SENSOR_R5
E11, E22, E12
*Node Output, nset=SENSOR_R6
U3, V3
*Element Output, elset=SENSOR_R6
E11, E22, E12
*Node Output, nset=SENSOR_R7
U3, V3
*Element Output, elset=SENSOR_R7
E11, E22, E12
*Node Output, nset=SENSOR_R8
U3, V3
*Element Output, elset=SENSOR_R8
E11, E22, E12
*Energy Output
ALLKE, ALLIE, ALLSE, ALLAE, ALLDMD, ALLPD, ALLWK, ETOTAL
*End Step
