*Heading
** Guided-wave plate, T300/F593 unidirectional, 100 kHz five-cycle Hann burst.
** Generated by make_abaqus_inp.py; NOT verified in Abaqus (see README).
*Preprint, echo=NO, model=NO, history=NO, contact=NO
**
*Part, name=Part-1
*Node
1, 0.0000000e+00, 0.0000000e+00, 0.0000000e+00
2, 1.2500000e-02, 0.0000000e+00, 0.0000000e+00
3, 2.5000000e-02, 0.0000000e+00, 0.0000000e+00
4, 3.7500000e-02, 0.0000000e+00, 0.0000000e+00
5, 5.0000000e-02, 0.0000000e+00, 0.0000000e+00
6, 6.2500000e-02, 0.0000000e+00, 0.0000000e+00
7, 7.5000000e-02, 0.0000000e+00, 0.0000000e+00
8, 8.7500000e-02, 0.0000000e+00, 0.0000000e+00
9, 1.0000000e-01, 0.0000000e+00, 0.0000000e+00
10, 1.1250000e-01, 0.0000000e+00, 0.0000000e+00
11, 1.2500000e-01, 0.0000000e+00, 0.0000000e+00
12, 1.3750000e-01, 0.0000000e+00, 0.0000000e+00
13, 1.5000000e-01, 0.0000000e+00, 0.0000000e+00
14, 1.6250000e-01, 0.0000000e+00, 0.0000000e+00
15, 1.7500000e-01, 0.0000000e+00, 0.0000000e+00
16, 1.8750000e-01, 0.0000000e+00, 0.0000000e+00
17, 2.0000000e-01, 0.0000000e+00, 0.0000000e+00
18, 2.1250000e-01, 0.0000000e+00, 0.0000000e+00
19, 2.2500000e-01, 0.0000000e+00, 0.0000000e+00
20, 2.3750000e-01, 0.0000000e+00, 0.0000000e+00
** ... 8406 like lines cut
*Element, type=C3D8R
1, 1, 2, 43, 42, 1682, 1683, 1724, 1723
2, 2, 3, 44, 43, 1683, 1684, 1725, 1724
3, 3, 4, 45, 44, 1684, 1685, 1726, 1725
4, 4, 5, 46, 45, 1685, 1686, 1727, 1726
5, 5, 6, 47, 46, 1686, 1687, 1728, 1727
6, 6, 7, 48, 47, 1687, 1688, 1729, 1728
7, 7, 8, 49, 48, 1688, 1689, 1730, 1729
8, 8, 9, 50, 49, 1689, 1690, 1731, 1730
9, 9, 10, 51, 50, 1690, 1691, 1732, 1731
10, 10, 11, 52, 51, 1691, 1692, 1733, 1732
11, 11, 12, 53, 52, 1692, 1693, 1734, 1733
12, 12, 13, 54, 53, 1693, 1694, 1735, 1734
13, 13, 14, 55, 54, 1694, 1695, 1736, 1735
14, 14, 15, 56, 55, 1695, 1696, 1737, 1736
15, 15, 16, 57, 56, 1696, 1697, 1738, 1737
16, 16, 17, 58, 57, 1697, 1698, 1739, 1738
17, 17, 18, 59, 58, 1698, 1699, 1740, 1739
18, 18, 19, 60, 59, 1699, 1700, 1741, 1740
19, 19, 20, 61, 60, 1700, 1701, 1742, 1741
20, 20, 21, 62, 61, 1701, 1702, 1743, 1742
** ... 6380 like lines cut
*Elset, elset=ALL, generate
1, 6400, 1
**
*Solid Section, elset=ALL, material=CFRP
,
*End Part
**
*Material, name=CFRP
*Density
1570.000,
*Elastic, type=ENGINEERING CONSTANTS
1.281000e+11, 8.200000e+09, 8.200000e+09, 2.700000e-01, 2.700000e-01, 2.000000e-01, 4.700000e+09, 4.700000e+09,
3.440000e+09,
**
*Assembly, name=Assembly
*Instance, name=PLATE-1, part=Part-1
*End Instance
*Nset, nset=RECV, instance=PLATE-1
7559, 7571,
*End Assembly
**
** Five-cycle Hann burst at 100 kHz, sampled every 0.5 us, peak 1.
*Amplitude, name=HANN, time=TOTAL TIME
0.0000000e+00, 0.0000000e+00, 5.0000000e-07, 3.1238192e-04, 1.0000000e-06, 2.3743979e-03, 1.5000000e-06, 7.3410856e-03
2.0000000e-06, 1.5306838e-02, 2.5000000e-06, 2.5073303e-02, 3.0000000e-06, 3.4214134e-02, 3.5000000e-06, 3.9444625e-02
4.0000000e-06, 3.7246168e-02, 4.5000000e-06, 2.4643918e-02, 5.0000000e-06, 1.1981805e-17, 5.5000000e-06, -3.6329269e-02
6.0000000e-06, -8.1612169e-02, 6.5000000e-06, -1.3074011e-01, 7.0000000e-06, -1.7665342e-01, 7.5000000e-06, -2.1117388e-01
8.0000000e-06, -2.2615337e-01, 8.5000000e-06, -2.1478826e-01, 9.0000000e-06, -1.7290765e-01, 9.5000000e-06, -1.0003006e-01
1.0000000e-05, -8.6701155e-17, 1.0500000e-05, 1.1893735e-01, 1.1000000e-05, 2.4469335e-01, 1.1500000e-05, 3.6250745e-01
1.2000000e-05, 4.5662498e-01, 1.2500000e-05, 5.1229093e-01, 1.3000000e-05, 5.1781028e-01, 1.3500000e-05, 4.6639669e-01
1.4000000e-05, 3.5754077e-01, 1.4500000e-05, 1.9767586e-01, 1.5000000e-05, 2.4637354e-16, 1.5500000e-05, -2.1658315e-01
1.6000000e-05, -4.2932646e-01, 1.6500000e-05, -6.1411588e-01, 1.7000000e-05, -7.4828189e-01, 1.7500000e-05, -8.1340799e-01
1.8000000e-05, -7.9778184e-01, 1.8500000e-05, -6.9816404e-01, 1.9000000e-05, -5.2062194e-01, 1.9500000e-05, -2.8028394e-01
2.0000000e-05, -4.5397314e-16, 2.0500000e-05, 2.9196929e-01, 2.1000000e-05, 5.6498794e-01, 2.1500000e-05, 7.8945952e-01
2.2000000e-05, 9.4022113e-01, 2.2500000e-05, 9.9950856e-01, 2.3000000e-05, 9.5912842e-01, 2.3500000e-05, 8.2156306e-01
2.4000000e-05, 5.9985971e-01, 2.4500000e-05, 3.1630083e-01, 2.5000000e-05, 6.2737545e-16, 2.5500000e-05, -3.1630083e-01
2.6000000e-05, -5.9985971e-01, 2.6500000e-05, -8.2156306e-01, 2.7000000e-05, -9.5912842e-01, 2.7500000e-05, -9.9950856e-01
2.8000000e-05, -9.4022113e-01, 2.8500000e-05, -7.8945952e-01, 2.9000000e-05, -5.6498794e-01, 2.9500000e-05, -2.9196929e-01
3.0000000e-05, -6.8095971e-16, 3.0500000e-05, 2.8028394e-01, 3.1000000e-05, 5.2062194e-01, 3.1500000e-05, 6.9816404e-01
3.2000000e-05, 7.9778184e-01, 3.2500000e-05, 8.1340799e-01, 3.3000000e-05, 7.4828189e-01, 3.3500000e-05, 6.1411588e-01
3.4000000e-05, 4.2932646e-01, 3.4500000e-05, 2.1658315e-01, 3.5000000e-05, 5.7487159e-16, 3.5500000e-05, -1.9767586e-01
3.6000000e-05, -3.5754077e-01, 3.6500000e-05, -4.6639669e-01, 3.7000000e-05, -5.1781028e-01, 3.7500000e-05, -5.1229093e-01
3.8000000e-05, -4.5662498e-01, 3.8500000e-05, -3.6250745e-01, 3.9000000e-05, -2.4469335e-01, 3.9500000e-05, -1.1893735e-01
** ... 6 like lines cut
**
*Step, name=WAVE, nlgeom=NO
*Dynamic, Explicit
, 2.2000000e-04
*Bulk Viscosity
0.06, 1.2
**
** Loads are applied per node; the amplitude times the terminal value
** gives 1 N per metre of width for the line source, matching the
** in-house model. No boundary conditions: a free plate is admissible
** in explicit dynamics and it is what the reference model solves.
*Cload, amplitude=HANN
6733, 3, 1.2500000e-02
6774, 3, 1.2500000e-02
6815, 3, 1.2500000e-02
6856, 3, 1.2500000e-02
6897, 3, 1.2500000e-02
6938, 3, 1.2500000e-02
6979, 3, 1.2500000e-02
7020, 3, 1.2500000e-02
7061, 3, 1.2500000e-02
7102, 3, 1.2500000e-02
7143, 3, 1.2500000e-02
7184, 3, 1.2500000e-02
7225, 3, 1.2500000e-02
7266, 3, 1.2500000e-02
7307, 3, 1.2500000e-02
7348, 3, 1.2500000e-02
7389, 3, 1.2500000e-02
7430, 3, 1.2500000e-02
7471, 3, 1.2500000e-02
7512, 3, 1.2500000e-02
** ... 62 like lines cut
**
*Output, field, number interval=110
*Node Output
U, V
*Output, history, time interval=1.0000000e-06
*Node Output, nset=RECV
U3
*End Step
