*Heading
** Guided-wave plate, T300/F593 unidirectional, 100 kHz five-cycle Hann burst.
** Generated by make_abaqus_inp.py; NOT verified in Abaqus (see README).
*Preprint, echo=NO, model=NO, history=NO, contact=NO
**
*Part, name=Part-1
*Node
1, 0.0000000e+00, 0.0000000e+00, 0.0000000e+00
2, 4.1666667e-02, 0.0000000e+00, 0.0000000e+00
3, 8.3333333e-02, 0.0000000e+00, 0.0000000e+00
4, 1.2500000e-01, 0.0000000e+00, 0.0000000e+00
5, 1.6666667e-01, 0.0000000e+00, 0.0000000e+00
6, 2.0833333e-01, 0.0000000e+00, 0.0000000e+00
7, 2.5000000e-01, 0.0000000e+00, 0.0000000e+00
8, 2.9166667e-01, 0.0000000e+00, 0.0000000e+00
9, 3.3333333e-01, 0.0000000e+00, 0.0000000e+00
10, 3.7500000e-01, 0.0000000e+00, 0.0000000e+00
11, 4.1666667e-01, 0.0000000e+00, 0.0000000e+00
12, 4.5833333e-01, 0.0000000e+00, 0.0000000e+00
13, 5.0000000e-01, 0.0000000e+00, 0.0000000e+00
14, 0.0000000e+00, 4.1666667e-02, 0.0000000e+00
15, 4.1666667e-02, 4.1666667e-02, 0.0000000e+00
16, 8.3333333e-02, 4.1666667e-02, 0.0000000e+00
17, 1.2500000e-01, 4.1666667e-02, 0.0000000e+00
18, 1.6666667e-01, 4.1666667e-02, 0.0000000e+00
19, 2.0833333e-01, 4.1666667e-02, 0.0000000e+00
20, 2.5000000e-01, 4.1666667e-02, 0.0000000e+00
** ... 825 like lines cut
*Element, type=C3D8R
1, 1, 2, 15, 14, 170, 171, 184, 183
2, 2, 3, 16, 15, 171, 172, 185, 184
3, 3, 4, 17, 16, 172, 173, 186, 185
4, 4, 5, 18, 17, 173, 174, 187, 186
5, 5, 6, 19, 18, 174, 175, 188, 187
6, 6, 7, 20, 19, 175, 176, 189, 188
7, 7, 8, 21, 20, 176, 177, 190, 189
8, 8, 9, 22, 21, 177, 178, 191, 190
9, 9, 10, 23, 22, 178, 179, 192, 191
10, 10, 11, 24, 23, 179, 180, 193, 192
11, 11, 12, 25, 24, 180, 181, 194, 193
12, 12, 13, 26, 25, 181, 182, 195, 194
13, 14, 15, 28, 27, 183, 184, 197, 196
14, 15, 16, 29, 28, 184, 185, 198, 197
15, 16, 17, 30, 29, 185, 186, 199, 198
16, 17, 18, 31, 30, 186, 187, 200, 199
17, 18, 19, 32, 31, 187, 188, 201, 200
18, 19, 20, 33, 32, 188, 189, 202, 201
19, 20, 21, 34, 33, 189, 190, 203, 202
20, 21, 22, 35, 34, 190, 191, 204, 203
** ... 556 like lines cut
*Elset, elset=ALL, generate
1, 576, 1
**
*Solid Section, elset=ALL, material=CFRP
,
*End Part
**
*Material, name=CFRP
*Density
1570.000,
*Elastic, type=ENGINEERING CONSTANTS
1.281000e+11, 8.200000e+09, 8.200000e+09, 2.700000e-01, 2.700000e-01, 2.000000e-01, 4.700000e+09, 4.700000e+09,
3.440000e+09,
**
*Assembly, name=Assembly
*Instance, name=PLATE-1, part=Part-1
*End Instance
*Nset, nset=RECV, instance=PLATE-1
759, 763,
*End Assembly
**
** Five-cycle Hann burst at 100 kHz, sampled every 0.5 us, peak 1.
*Amplitude, name=HANN, time=TOTAL TIME
0.0000000e+00, 0.0000000e+00, 5.0000000e-07, 3.1238192e-04, 1.0000000e-06, 2.3743979e-03, 1.5000000e-06, 7.3410856e-03
2.0000000e-06, 1.5306838e-02, 2.5000000e-06, 2.5073303e-02, 3.0000000e-06, 3.4214134e-02, 3.5000000e-06, 3.9444625e-02
4.0000000e-06, 3.7246168e-02, 4.5000000e-06, 2.4643918e-02, 5.0000000e-06, 1.1981805e-17, 5.5000000e-06, -3.6329269e-02
6.0000000e-06, -8.1612169e-02, 6.5000000e-06, -1.3074011e-01, 7.0000000e-06, -1.7665342e-01, 7.5000000e-06, -2.1117388e-01
8.0000000e-06, -2.2615337e-01, 8.5000000e-06, -2.1478826e-01, 9.0000000e-06, -1.7290765e-01, 9.5000000e-06, -1.0003006e-01
1.0000000e-05, -8.6701155e-17, 1.0500000e-05, 1.1893735e-01, 1.1000000e-05, 2.4469335e-01, 1.1500000e-05, 3.6250745e-01
1.2000000e-05, 4.5662498e-01, 1.2500000e-05, 5.1229093e-01, 1.3000000e-05, 5.1781028e-01, 1.3500000e-05, 4.6639669e-01
1.4000000e-05, 3.5754077e-01, 1.4500000e-05, 1.9767586e-01, 1.5000000e-05, 2.4637354e-16, 1.5500000e-05, -2.1658315e-01
1.6000000e-05, -4.2932646e-01, 1.6500000e-05, -6.1411588e-01, 1.7000000e-05, -7.4828189e-01, 1.7500000e-05, -8.1340799e-01
1.8000000e-05, -7.9778184e-01, 1.8500000e-05, -6.9816404e-01, 1.9000000e-05, -5.2062194e-01, 1.9500000e-05, -2.8028394e-01
2.0000000e-05, -4.5397314e-16, 2.0500000e-05, 2.9196929e-01, 2.1000000e-05, 5.6498794e-01, 2.1500000e-05, 7.8945952e-01
2.2000000e-05, 9.4022113e-01, 2.2500000e-05, 9.9950856e-01, 2.3000000e-05, 9.5912842e-01, 2.3500000e-05, 8.2156306e-01
2.4000000e-05, 5.9985971e-01, 2.4500000e-05, 3.1630083e-01, 2.5000000e-05, 6.2737545e-16, 2.5500000e-05, -3.1630083e-01
2.6000000e-05, -5.9985971e-01, 2.6500000e-05, -8.2156306e-01, 2.7000000e-05, -9.5912842e-01, 2.7500000e-05, -9.9950856e-01
2.8000000e-05, -9.4022113e-01, 2.8500000e-05, -7.8945952e-01, 2.9000000e-05, -5.6498794e-01, 2.9500000e-05, -2.9196929e-01
3.0000000e-05, -6.8095971e-16, 3.0500000e-05, 2.8028394e-01, 3.1000000e-05, 5.2062194e-01, 3.1500000e-05, 6.9816404e-01
3.2000000e-05, 7.9778184e-01, 3.2500000e-05, 8.1340799e-01, 3.3000000e-05, 7.4828189e-01, 3.3500000e-05, 6.1411588e-01
3.4000000e-05, 4.2932646e-01, 3.4500000e-05, 2.1658315e-01, 3.5000000e-05, 5.7487159e-16, 3.5500000e-05, -1.9767586e-01
3.6000000e-05, -3.5754077e-01, 3.6500000e-05, -4.6639669e-01, 3.7000000e-05, -5.1781028e-01, 3.7500000e-05, -5.1229093e-01
3.8000000e-05, -4.5662498e-01, 3.8500000e-05, -3.6250745e-01, 3.9000000e-05, -2.4469335e-01, 3.9500000e-05, -1.1893735e-01
** ... 6 like lines cut
**
*Step, name=WAVE, nlgeom=NO
*Dynamic, Explicit
, 2.2000000e-04
*Bulk Viscosity
0.06, 1.2
**
** Loads are applied per node; the amplitude times the terminal value
** gives 1 N per metre of width for the line source, matching the
** in-house model. No boundary conditions: a free plate is admissible
** in explicit dynamics and it is what the reference model solves.
*Cload, amplitude=HANN
679, 3, 4.1666667e-02
692, 3, 4.1666667e-02
705, 3, 4.1666667e-02
718, 3, 4.1666667e-02
731, 3, 4.1666667e-02
744, 3, 4.1666667e-02
757, 3, 4.1666667e-02
770, 3, 4.1666667e-02
783, 3, 4.1666667e-02
796, 3, 4.1666667e-02
809, 3, 4.1666667e-02
822, 3, 4.1666667e-02
835, 3, 4.1666667e-02
3, 3, 4.1666667e-02
16, 3, 4.1666667e-02
29, 3, 4.1666667e-02
42, 3, 4.1666667e-02
55, 3, 4.1666667e-02
68, 3, 4.1666667e-02
81, 3, 4.1666667e-02
** ... 6 like lines cut
**
*Output, field, number interval=110
*Node Output
U, V
*Output, history, time interval=1.0000000e-06
*Node Output, nset=RECV
U3
*End Step
