*Heading
** Guided-wave plate, T300/F593 unidirectional, 100 kHz five-cycle Hann burst.
** Generated by make_abaqus_inp.py. The 500x4x4 line-source form of this
** deck is run in Abaqus 2026 and compared against the in-house solver in
** section 4b of README.md; the element type and the mesh are the two things
** that decide whether that comparison holds.
*Preprint, echo=NO, model=NO, history=NO, contact=NO
**
*Part, name=Part-1
*Node
1, 0.0000000e+00, 0.0000000e+00, 0.0000000e+00
2, 1.0000000e-03, 0.0000000e+00, 0.0000000e+00
3, 2.0000000e-03, 0.0000000e+00, 0.0000000e+00
4, 3.0000000e-03, 0.0000000e+00, 0.0000000e+00
5, 4.0000000e-03, 0.0000000e+00, 0.0000000e+00
6, 5.0000000e-03, 0.0000000e+00, 0.0000000e+00
7, 6.0000000e-03, 0.0000000e+00, 0.0000000e+00
8, 7.0000000e-03, 0.0000000e+00, 0.0000000e+00
9, 8.0000000e-03, 0.0000000e+00, 0.0000000e+00
10, 9.0000000e-03, 0.0000000e+00, 0.0000000e+00
11, 1.0000000e-02, 0.0000000e+00, 0.0000000e+00
12, 1.1000000e-02, 0.0000000e+00, 0.0000000e+00
13, 1.2000000e-02, 0.0000000e+00, 0.0000000e+00
14, 1.3000000e-02, 0.0000000e+00, 0.0000000e+00
15, 1.4000000e-02, 0.0000000e+00, 0.0000000e+00
16, 1.5000000e-02, 0.0000000e+00, 0.0000000e+00
17, 1.6000000e-02, 0.0000000e+00, 0.0000000e+00
18, 1.7000000e-02, 0.0000000e+00, 0.0000000e+00
19, 1.8000000e-02, 0.0000000e+00, 0.0000000e+00
20, 1.9000000e-02, 0.0000000e+00, 0.0000000e+00
** ... 12505 like lines cut
*Element, type=C3D8
1, 1, 2, 503, 502, 2506, 2507, 3008, 3007
2, 2, 3, 504, 503, 2507, 2508, 3009, 3008
3, 3, 4, 505, 504, 2508, 2509, 3010, 3009
4, 4, 5, 506, 505, 2509, 2510, 3011, 3010
5, 5, 6, 507, 506, 2510, 2511, 3012, 3011
6, 6, 7, 508, 507, 2511, 2512, 3013, 3012
7, 7, 8, 509, 508, 2512, 2513, 3014, 3013
8, 8, 9, 510, 509, 2513, 2514, 3015, 3014
9, 9, 10, 511, 510, 2514, 2515, 3016, 3015
10, 10, 11, 512, 511, 2515, 2516, 3017, 3016
11, 11, 12, 513, 512, 2516, 2517, 3018, 3017
12, 12, 13, 514, 513, 2517, 2518, 3019, 3018
13, 13, 14, 515, 514, 2518, 2519, 3020, 3019
14, 14, 15, 516, 515, 2519, 2520, 3021, 3020
15, 15, 16, 517, 516, 2520, 2521, 3022, 3021
16, 16, 17, 518, 517, 2521, 2522, 3023, 3022
17, 17, 18, 519, 518, 2522, 2523, 3024, 3023
18, 18, 19, 520, 519, 2523, 2524, 3025, 3024
19, 19, 20, 521, 520, 2524, 2525, 3026, 3025
20, 20, 21, 522, 521, 2525, 2526, 3027, 3026
** ... 7980 like lines cut
*Elset, elset=ALL, generate
1, 8000, 1
**
** Anisotropic properties REQUIRE an explicit local orientation in
** Abaqus, even when the material axes coincide with the global ones.
** Omitting it is a hard error, not a default: the first successful
** submission attempt failed with Anisotropic material properties
** without a local orientation system. Local 1 runs along the fibres
** (global x), local 2 along y, local 3 through the thickness.
*Orientation, name=Fibre
1., 0., 0., 0., 1., 0.
3, 0.
*Solid Section, elset=ALL, material=CFRP, orientation=Fibre
,
*End Part
**
*Material, name=CFRP
*Density
1570.000,
*Elastic, type=ENGINEERING CONSTANTS
1.281000e+11, 8.200000e+09, 8.200000e+09, 2.700000e-01, 2.700000e-01, 2.000000e-01, 4.700000e+09, 4.700000e+09,
3.440000e+09,
**
*Assembly, name=Assembly
*Instance, name=PLATE-1, part=Part-1
*End Instance
*Nset, nset=RECV, instance=PLATE-1
11203, 11343,
*End Assembly
**
** Five-cycle Hann burst at 100 kHz, sampled every 0.5 us, peak 1.
*Amplitude, name=HANN, time=TOTAL TIME
0.0000000e+00, 0.0000000e+00, 5.0000000e-07, 3.1238192e-04, 1.0000000e-06, 2.3743979e-03, 1.5000000e-06, 7.3410856e-03
2.0000000e-06, 1.5306838e-02, 2.5000000e-06, 2.5073303e-02, 3.0000000e-06, 3.4214134e-02, 3.5000000e-06, 3.9444625e-02
4.0000000e-06, 3.7246168e-02, 4.5000000e-06, 2.4643918e-02, 5.0000000e-06, 1.1981805e-17, 5.5000000e-06, -3.6329269e-02
6.0000000e-06, -8.1612169e-02, 6.5000000e-06, -1.3074011e-01, 7.0000000e-06, -1.7665342e-01, 7.5000000e-06, -2.1117388e-01
8.0000000e-06, -2.2615337e-01, 8.5000000e-06, -2.1478826e-01, 9.0000000e-06, -1.7290765e-01, 9.5000000e-06, -1.0003006e-01
1.0000000e-05, -8.6701155e-17, 1.0500000e-05, 1.1893735e-01, 1.1000000e-05, 2.4469335e-01, 1.1500000e-05, 3.6250745e-01
1.2000000e-05, 4.5662498e-01, 1.2500000e-05, 5.1229093e-01, 1.3000000e-05, 5.1781028e-01, 1.3500000e-05, 4.6639669e-01
1.4000000e-05, 3.5754077e-01, 1.4500000e-05, 1.9767586e-01, 1.5000000e-05, 2.4637354e-16, 1.5500000e-05, -2.1658315e-01
1.6000000e-05, -4.2932646e-01, 1.6500000e-05, -6.1411588e-01, 1.7000000e-05, -7.4828189e-01, 1.7500000e-05, -8.1340799e-01
1.8000000e-05, -7.9778184e-01, 1.8500000e-05, -6.9816404e-01, 1.9000000e-05, -5.2062194e-01, 1.9500000e-05, -2.8028394e-01
2.0000000e-05, -4.5397314e-16, 2.0500000e-05, 2.9196929e-01, 2.1000000e-05, 5.6498794e-01, 2.1500000e-05, 7.8945952e-01
2.2000000e-05, 9.4022113e-01, 2.2500000e-05, 9.9950856e-01, 2.3000000e-05, 9.5912842e-01, 2.3500000e-05, 8.2156306e-01
2.4000000e-05, 5.9985971e-01, 2.4500000e-05, 3.1630083e-01, 2.5000000e-05, 6.2737545e-16, 2.5500000e-05, -3.1630083e-01
2.6000000e-05, -5.9985971e-01, 2.6500000e-05, -8.2156306e-01, 2.7000000e-05, -9.5912842e-01, 2.7500000e-05, -9.9950856e-01
2.8000000e-05, -9.4022113e-01, 2.8500000e-05, -7.8945952e-01, 2.9000000e-05, -5.6498794e-01, 2.9500000e-05, -2.9196929e-01
3.0000000e-05, -6.8095971e-16, 3.0500000e-05, 2.8028394e-01, 3.1000000e-05, 5.2062194e-01, 3.1500000e-05, 6.9816404e-01
3.2000000e-05, 7.9778184e-01, 3.2500000e-05, 8.1340799e-01, 3.3000000e-05, 7.4828189e-01, 3.3500000e-05, 6.1411588e-01
3.4000000e-05, 4.2932646e-01, 3.4500000e-05, 2.1658315e-01, 3.5000000e-05, 5.7487159e-16, 3.5500000e-05, -1.9767586e-01
3.6000000e-05, -3.5754077e-01, 3.6500000e-05, -4.6639669e-01, 3.7000000e-05, -5.1781028e-01, 3.7500000e-05, -5.1229093e-01
3.8000000e-05, -4.5662498e-01, 3.8500000e-05, -3.6250745e-01, 3.9000000e-05, -2.4469335e-01, 3.9500000e-05, -1.1893735e-01
** ... 6 like lines cut
**
*Step, name=WAVE, nlgeom=NO
*Dynamic, Explicit
, 2.2000000e-04
*Bulk Viscosity
0.06, 1.2
**
** Loads are applied per node; the amplitude times the terminal value
** gives 1 N per metre of width for the line source, matching the
** in-house model. No boundary conditions: a free plate is admissible
** in explicit dynamics and it is what the reference model solves.
*Cload, amplitude=HANN
PLATE-1.10121, 3, 5.0000000e-03
PLATE-1.10622, 3, 5.0000000e-03
PLATE-1.11123, 3, 5.0000000e-03
PLATE-1.11624, 3, 5.0000000e-03
PLATE-1.12125, 3, 5.0000000e-03
PLATE-1.101, 3, 5.0000000e-03
PLATE-1.602, 3, 5.0000000e-03
PLATE-1.1103, 3, 5.0000000e-03
PLATE-1.1604, 3, 5.0000000e-03
PLATE-1.2105, 3, 5.0000000e-03
**
*Output, field, number interval=110
*Node Output
U, V
*Output, history, time interval=1.0000000e-06
** ALLAE against ALLIE is the hourglass check when reduced integration
** is used; ETOTAL must stay flat once the burst has passed, the plate
** being free and undamped.
*Energy Output
ALLAE, ALLIE, ALLKE, ETOTAL
*Node Output, nset=RECV
U3
*End Step
