*HEADING
Cantilever, C3D8I, eigenfrequency
*NODE
1, 0.00000000e+00, 0.00000000e+00, 0.00000000e+00
2, 2.00000000e-01, 0.00000000e+00, 0.00000000e+00
3, 4.00000000e-01, 0.00000000e+00, 0.00000000e+00
4, 6.00000000e-01, 0.00000000e+00, 0.00000000e+00
5, 8.00000000e-01, 0.00000000e+00, 0.00000000e+00
6, 1.00000000e+00, 0.00000000e+00, 0.00000000e+00
7, 0.00000000e+00, 1.00000000e-01, 0.00000000e+00
8, 2.00000000e-01, 1.00000000e-01, 0.00000000e+00
9, 4.00000000e-01, 1.00000000e-01, 0.00000000e+00
10, 6.00000000e-01, 1.00000000e-01, 0.00000000e+00
11, 8.00000000e-01, 1.00000000e-01, 0.00000000e+00
12, 1.00000000e+00, 1.00000000e-01, 0.00000000e+00
13, 0.00000000e+00, 0.00000000e+00, 1.00000000e-01
14, 2.00000000e-01, 0.00000000e+00, 1.00000000e-01
15, 4.00000000e-01, 0.00000000e+00, 1.00000000e-01
16, 6.00000000e-01, 0.00000000e+00, 1.00000000e-01
17, 8.00000000e-01, 0.00000000e+00, 1.00000000e-01
18, 1.00000000e+00, 0.00000000e+00, 1.00000000e-01
19, 0.00000000e+00, 1.00000000e-01, 1.00000000e-01
20, 2.00000000e-01, 1.00000000e-01, 1.00000000e-01
** ... 4 like lines cut
*ELEMENT, TYPE=C3D8I, ELSET=EALL
1, 1, 2, 8, 7, 13, 14, 20, 19
2, 2, 3, 9, 8, 14, 15, 21, 20
3, 3, 4, 10, 9, 15, 16, 22, 21
4, 4, 5, 11, 10, 16, 17, 23, 22
5, 5, 6, 12, 11, 17, 18, 24, 23
*MATERIAL, NAME=S
*ELASTIC
200000000000.0, 0.30
*DENSITY
7850.0
*SOLID SECTION, ELSET=EALL, MATERIAL=S
*STEP
*FREQUENCY
2
*BOUNDARY
1, 1, 3
7, 1, 3
13, 1, 3
19, 1, 3
*NODE FILE
U
*END STEP
