*HEADING
Cantilever, C3D8I, eigenfrequency
*NODE
1, 0.00000000e+00, 0.00000000e+00, 0.00000000e+00
2, 1.00000000e-01, 0.00000000e+00, 0.00000000e+00
3, 2.00000000e-01, 0.00000000e+00, 0.00000000e+00
4, 3.00000000e-01, 0.00000000e+00, 0.00000000e+00
5, 4.00000000e-01, 0.00000000e+00, 0.00000000e+00
6, 5.00000000e-01, 0.00000000e+00, 0.00000000e+00
7, 6.00000000e-01, 0.00000000e+00, 0.00000000e+00
8, 7.00000000e-01, 0.00000000e+00, 0.00000000e+00
9, 8.00000000e-01, 0.00000000e+00, 0.00000000e+00
10, 9.00000000e-01, 0.00000000e+00, 0.00000000e+00
11, 1.00000000e+00, 0.00000000e+00, 0.00000000e+00
12, 0.00000000e+00, 1.00000000e-01, 0.00000000e+00
13, 1.00000000e-01, 1.00000000e-01, 0.00000000e+00
14, 2.00000000e-01, 1.00000000e-01, 0.00000000e+00
15, 3.00000000e-01, 1.00000000e-01, 0.00000000e+00
16, 4.00000000e-01, 1.00000000e-01, 0.00000000e+00
17, 5.00000000e-01, 1.00000000e-01, 0.00000000e+00
18, 6.00000000e-01, 1.00000000e-01, 0.00000000e+00
19, 7.00000000e-01, 1.00000000e-01, 0.00000000e+00
20, 8.00000000e-01, 1.00000000e-01, 0.00000000e+00
** ... 24 like lines cut
*ELEMENT, TYPE=C3D8I, ELSET=EALL
1, 1, 2, 13, 12, 23, 24, 35, 34
2, 2, 3, 14, 13, 24, 25, 36, 35
3, 3, 4, 15, 14, 25, 26, 37, 36
4, 4, 5, 16, 15, 26, 27, 38, 37
5, 5, 6, 17, 16, 27, 28, 39, 38
6, 6, 7, 18, 17, 28, 29, 40, 39
7, 7, 8, 19, 18, 29, 30, 41, 40
8, 8, 9, 20, 19, 30, 31, 42, 41
9, 9, 10, 21, 20, 31, 32, 43, 42
10, 10, 11, 22, 21, 32, 33, 44, 43
*MATERIAL, NAME=S
*ELASTIC
200000000000.0, 0.30
*DENSITY
7850.0
*SOLID SECTION, ELSET=EALL, MATERIAL=S
*STEP
*FREQUENCY
2
*BOUNDARY
1, 1, 3
12, 1, 3
23, 1, 3
34, 1, 3
*NODE FILE
U
*END STEP
