*HEADING
CalculiX self-test: single C3D8 element, eigenfrequency check, SI units
*NODE
1, 0., 0., 0.
2, 1., 0., 0.
3, 1., 1., 0.
4, 0., 1., 0.
5, 0., 0., 1.
6, 1., 0., 1.
7, 1., 1., 1.
8, 0., 1., 1.
*ELEMENT, TYPE=C3D8, ELSET=EALL
1, 1, 2, 3, 4, 5, 6, 7, 8
*MATERIAL, NAME=STEEL
*ELASTIC
200.e9, 0.3
*DENSITY
7850.
*SOLID SECTION, ELSET=EALL, MATERIAL=STEEL
*STEP
*FREQUENCY
4
*BOUNDARY
1, 1, 3
2, 1, 3
3, 1, 3
4, 1, 3
*NODE FILE
U
*END STEP
