*Heading
** degradation check, generated by check_damage_degradation.py
*Preprint, echo=NO, model=NO, history=NO, contact=NO
*Node
1, 0., 0., 0.
2, 1e-3, 0., 0.
3, 1e-3, 1e-3, 0.
4, 0., 1e-3, 0.
5, 0., 0., 5e-4
6, 1e-3, 0., 5e-4
7, 1e-3, 1e-3, 5e-4
8, 0., 1e-3, 5e-4
*Nset, nset=ZERO
1, 4, 5, 8
*Nset, nset=FAR
2, 3, 6, 7
*Nset, nset=TOP
5, 6, 7, 8
*Nset, nset=BOT
1, 2, 3, 4
*Element, type=C3D8
1, 1, 2, 3, 4, 5, 6, 7, 8
*Elset, elset=ALL
1,
*Orientation, name=Fibre
1., 0., 0., 0., 1., 0.
3, 0.
*Section Controls, name=SC, max degradation=1.0
*Solid Section, elset=ALL, material=CFRP, orientation=Fibre, controls=SC
,
*Material, name=CFRP
*Density
1570.,
*Elastic, type=ENGINEERING CONSTANTS
1.281e11, 8.2e9, 8.2e9, 0.27, 0.27, 0.20, 4.7e9, 4.7e9
3.44e9,
*Damage Initiation, criterion=MAX STRESS
1.5e9, 1.2e9, 5.0e7, 2.0e8, 5.0e7, 2.0e8, 7.0e7, 7.0e7,
5.0e7
*Damage Evolution, type=ENERGY
9.16e4
*Step, name=S1, nlgeom=NO
*Dynamic, Explicit
, 2e-4
*Boundary, amplitude=RAMP
TOP, 1, 1, 3e-5
*Boundary
BOT, ENCASTRE
*Output, history
*Node Output, nset=FAR
RF1
*Node Output, nset=TOP
RF1
*Output, field, frequency=10
*Node Output
U
*Element Output
S, SDEG
*End Step
*End Step
*Amplitude, name=RAMP
0., 0., 2e-4, 1.
