*Heading
** Ball-drop impact on a 100 x 100 x 2 mm coupon, 2 plies, contact-based cohesive between
** them, generated by make_impact_wave_inp.py.
** In-plane 5.26316 mm at the edges: set by ten elements per A0 wavelength at
** 100 kHz, the rule the validated wave models use, so one mesh serves both
** stages. In-plane 5.26316 mm at the centre, where the ball contacts.
*Preprint, echo=NO, model=NO, history=NO, contact=NO
*Node
1, 0, 0, 0
2, 0.005263157895, 0, 0
3, 0.01052631579, 0, 0
4, 0.01578947368, 0, 0
5, 0.02105263158, 0, 0
6, 0.02631578947, 0, 0
7, 0.03157894737, 0, 0
8, 0.03684210526, 0, 0
9, 0.04210526316, 0, 0
10, 0.04736842105, 0, 0
11, 0.05263157895, 0, 0
12, 0.05789473684, 0, 0
13, 0.06315789474, 0, 0
14, 0.06842105263, 0, 0
15, 0.07368421053, 0, 0
16, 0.07894736842, 0, 0
17, 0.08421052632, 0, 0
18, 0.08947368421, 0, 0
19, 0.09473684211, 0, 0
20, 0.1, 0, 0
** ... 12263 like lines cut
** solid elements, one per ply
*Element, type=C3D8
1, 1, 2, 22, 21, 401, 402, 422, 421
2, 2, 3, 23, 22, 402, 403, 423, 422
3, 3, 4, 24, 23, 403, 404, 424, 423
4, 4, 5, 25, 24, 404, 405, 425, 424
5, 5, 6, 26, 25, 405, 406, 426, 425
6, 6, 7, 27, 26, 406, 407, 427, 426
7, 7, 8, 28, 27, 407, 408, 428, 427
8, 8, 9, 29, 28, 408, 409, 429, 428
9, 9, 10, 30, 29, 409, 410, 430, 429
10, 10, 11, 31, 30, 410, 411, 431, 430
11, 11, 12, 32, 31, 411, 412, 432, 431
12, 12, 13, 33, 32, 412, 413, 433, 432
13, 13, 14, 34, 33, 413, 414, 434, 433
14, 14, 15, 35, 34, 414, 415, 435, 434
15, 15, 16, 36, 35, 415, 416, 436, 435
16, 16, 17, 37, 36, 416, 417, 437, 436
17, 17, 18, 38, 37, 417, 418, 438, 437
18, 18, 19, 39, 38, 418, 419, 439, 438
19, 19, 20, 40, 39, 419, 420, 440, 439
20, 21, 22, 42, 41, 421, 422, 442, 441
** ... 702 like lines cut
** rigid facets of the ball
*Element, type=R3D4
843, 1602, 1603, 1723, 1722
844, 1603, 1604, 1724, 1723
845, 1604, 1605, 1725, 1724
846, 1605, 1606, 1726, 1725
847, 1606, 1607, 1727, 1726
848, 1607, 1608, 1728, 1727
849, 1608, 1609, 1729, 1728
850, 1609, 1610, 1730, 1729
851, 1610, 1611, 1731, 1730
852, 1611, 1612, 1732, 1731
853, 1612, 1613, 1733, 1732
854, 1613, 1614, 1734, 1733
855, 1614, 1615, 1735, 1734
856, 1615, 1616, 1736, 1735
857, 1616, 1617, 1737, 1736
858, 1617, 1618, 1738, 1737
859, 1618, 1619, 1739, 1738
860, 1619, 1620, 1740, 1739
861, 1620, 1621, 1741, 1740
862, 1621, 1622, 1742, 1741
** ... 10540 like lines cut
*Element, type=R3D3
723, 1601, 1603, 1602
724, 1601, 1604, 1603
725, 1601, 1605, 1604
726, 1601, 1606, 1605
727, 1601, 1607, 1606
728, 1601, 1608, 1607
729, 1601, 1609, 1608
730, 1601, 1610, 1609
731, 1601, 1611, 1610
732, 1601, 1612, 1611
733, 1601, 1613, 1612
734, 1601, 1614, 1613
735, 1601, 1615, 1614
736, 1601, 1616, 1615
737, 1601, 1617, 1616
738, 1601, 1618, 1617
739, 1601, 1619, 1618
740, 1601, 1620, 1619
741, 1601, 1621, 1620
742, 1601, 1622, 1621
** ... 220 like lines cut
*Element, type=MASS
11523, 12283
*Element, type=ROTARYI
11524, 12283
*Elset, elset=BALLMASS
11523,
*Elset, elset=BALLINERTIA
11524,
*Elset, elset=PLIES, generate
1, 722, 1
*Elset, elset=LAYER1, generate
1, 361, 1
*Elset, elset=LAYER2, generate
362, 722, 1
*Surface, type=ELEMENT, name=TOP
LAYER2, S2
*Surface, type=ELEMENT, name=IFACE1_LOWER
LAYER1, S2
*Surface, type=ELEMENT, name=IFACE1_UPPER
LAYER2, S1
*Elset, elset=BALL, generate
723, 11522, 1
*Surface, type=ELEMENT, name=BALLFACETS
BALL
*Rigid Body, ref node=12283, elset=BALL
*Nset, nset=SENSOR_ACT
1406,
*Elset, elset=SENSOR_ACT
557,
*Nset, nset=SENSOR_R1
1413,
*Elset, elset=SENSOR_R1
564,
*Nset, nset=SENSOR_R2
1416,
*Elset, elset=SENSOR_R2
567,
*Nset, nset=SENSOR_R3
1311,
*Elset, elset=SENSOR_R3
467,
*Nset, nset=SENSOR_R4
1491,
*Elset, elset=SENSOR_R4
638,
*Nset, nset=SENSOR_R5
1315,
*Elset, elset=SENSOR_R5
471,
*Nset, nset=SENSOR_R6
1495,
*Elset, elset=SENSOR_R6
642,
*Nset, nset=SENSOR_R7
1306,
*Elset, elset=SENSOR_R7
462,
*Nset, nset=SENSOR_R8
1486,
*Elset, elset=SENSOR_R8
633,
*Elset, elset=PATCH
537,
*Surface, type=ELEMENT, name=PATCH
PATCH, S2
*Nset, nset=FRAME
1, 2, 3, 4, 5, 6, 7, 8, 9, 10, 11, 12, 13, 14, 15, 16,
17, 18, 19, 20, 21, 22, 23, 24, 25, 26, 27, 28, 29, 30, 31, 32,
33, 34, 35, 36, 37, 38, 39, 40, 41, 42, 59, 60, 61, 62, 79, 80,
81, 82, 99, 100, 101, 102, 119, 120, 121, 122, 139, 140, 141, 142, 159, 160,
161, 162, 179, 180, 181, 182, 199, 200, 201, 202, 219, 220, 221, 222, 239, 240,
241, 242, 259, 260, 261, 262, 279, 280, 281, 282, 299, 300, 301, 302, 319, 320,
321, 322, 339, 340, 341, 342, 359, 360, 361, 362, 363, 364, 365, 366, 367, 368,
369, 370, 371, 372, 373, 374, 375, 376, 377, 378, 379, 380, 381, 382, 383, 384,
385, 386, 387, 388, 389, 390, 391, 392, 393, 394, 395, 396, 397, 398, 399, 400,
401, 402, 403, 404, 405, 406, 407, 408, 409, 410, 411, 412, 413, 414, 415, 416,
417, 418, 419, 420, 421, 422, 423, 424, 425, 426, 427, 428, 429, 430, 431, 432,
433, 434, 435, 436, 437, 438, 439, 440, 441, 442, 459, 460, 461, 462, 479, 480,
481, 482, 499, 500, 501, 502, 519, 520, 521, 522, 539, 540, 541, 542, 559, 560,
561, 562, 579, 580, 581, 582, 599, 600, 601, 602, 619, 620, 621, 622, 639, 640,
641, 642, 659, 660, 661, 662, 679, 680, 681, 682, 699, 700, 701, 702, 719, 720,
721, 722, 739, 740, 741, 742, 759, 760, 761, 762, 763, 764, 765, 766, 767, 768,
769, 770, 771, 772, 773, 774, 775, 776, 777, 778, 779, 780, 781, 782, 783, 784,
785, 786, 787, 788, 789, 790, 791, 792, 793, 794, 795, 796, 797, 798, 799, 800,
801, 802, 803, 804, 805, 806, 807, 808, 809, 810, 811, 812, 813, 814, 815, 816,
817, 818, 819, 820, 821, 822, 823, 824, 825, 826, 827, 828, 829, 830, 831, 832,
** ... 16 like lines cut
*Nset, nset=PLATENODES, generate
1, 1600, 1
*Nset, nset=BALLREF
12283,
*Nset, nset=TOPCENTRE
1390,
*Orientation, name=Fibre
1., 0., 0., 0., 1., 0.
3, 0.
*Section Controls, name=SC, max degradation=1.0
*Solid Section, elset=PLIES, material=PLY, orientation=Fibre, controls=SC
,
*Material, name=PLY
** Numerical inter-impact relaxation only, NOT measured damping.
** Field 1=0 during impact; field 1=1 during relaxation.
*Damping, alpha=TABULAR, dependencies=1
0., 0., 0.
20000, 0., 1.
*Density
1650.0,
*Elastic, type=ENGINEERING CONSTANTS
1.281e11, 8.2e9, 8.2e9, 0.27, 0.27, 0.20, 4.7e9, 4.7e9
3.44e9,
** Diagnostic only: the failure index locates intralaminar failure but,
** as check_damage_degradation.py shows, it does not degrade a solid
** element. The stiffness reduction comes from the cohesive interfaces.
*Damage Initiation, criterion=MAX STRESS
1.5e9, 1.2e9, 5.0e7, 2.0e8, 5.0e7, 2.0e8, 7.0e7, 7.0e7,
5.0e7
*Damage Evolution, type=ENERGY
9.16e4
** Interface: contact-based cohesive behaviour. There is no cohesive
** element and therefore no cohesive material; the traction-separation
** law, its initiation criterion and its evolution all live on the
** surface interaction. The penalty stiffness used to be left to the
** Abaqus default on the argument that none then had to be invented, which
** turned out to be the wrong call: on the refined mesh the interface mode
** that default creates is too stiff for the stable increment and the wave
** solution drifts asymmetric. --cohesive-stiffness ply sets it from the
** ply moduli instead. See cohesive_stiffness() above.
*Surface Interaction, name=DELAM
*Cohesive Behavior
2.37e+13, 2.37e+13, 2.37e+13
*Damage Initiation, criterion=QUADS
59.5e6, 59.5e6, 59.5e6
*Damage Evolution, type=ENERGY, mixed mode behavior=BK, power=2.284
490.0, 1060.0, 1060.0
*Mass, elset=BALLMASS
3.967622e-03,
** Rotational inertia of a solid sphere, 2/5 m r^2. A central impact
** does not spin the ball; the value is here so the rigid body is well
** posed.
*Rotary Inertia, elset=BALLINERTIA
2.539278e-08, 2.539278e-08, 2.539278e-08
*Initial Conditions, type=VELOCITY
12283, 3, -1.229630e+01
*Initial Conditions, type=FIELD, variable=1
PLATENODES, 0.
*Surface Interaction, name=FRIC
*Friction
0.3,
*Contact, op=NEW
*Contact Inclusions
IFACE1_LOWER, IFACE1_UPPER
TOP, BALLFACETS
** The blanket friction assignment comes first and the interface pairs
** after it, because a later assignment takes precedence over an earlier
** one for the same pair.
*Contact Property Assignment
 ,  , FRIC
IFACE1_UPPER, IFACE1_LOWER, DELAM
*Amplitude, name=BURST, time=STEP TIME
0, 0
5e-07, 0.0003048872
1e-06, 0.002317431
1.5e-06, 0.007164958
2e-06, 0.01493959
2.5e-06, 0.02447174
3e-06, 0.03339327
3.5e-06, 0.03849827
4e-06, 0.03635255
4.5e-06, 0.02405266
5e-06, 1.169434e-17
5.5e-06, -0.03545765
6e-06, -0.07965412
6.5e-06, -0.1276034
7e-06, -0.1724151
7.5e-06, -0.2061074
8e-06, -0.2207275
8.5e-06, -0.209635
9e-06, -0.1687592
9.5e-06, -0.09763013
** ... 81 like lines cut
*Step, name=IMPACT, nlgeom=NO
*Dynamic, Explicit
, 0.0005
*Bulk Viscosity
0.06, 1.2
*Boundary
FRAME, ENCASTRE
*Output, field, number interval=50
*Node Output
U, V
*Element Output
S, SDEG
*Contact Output
** CSDMG is the interface damage variable for contact-based cohesive
** behaviour; it is to the surface what SDEG is to a cohesive element,
** and it is the variable the interface damage area is read from.
CSTRESS, CDISP, CSDMG
*Output, history, time interval=5e-07
*Node Output, nset=BALLREF
U3, V3
*Node Output, nset=TOPCENTRE
U3
*Energy Output
ALLKE, ALLIE, ALLSE, ALLAE, ALLDMD, ALLPD, ALLWK, ETOTAL
*Energy Output
ALLVD, ALLFD, ALLCW, ALLPW
*Restart, write, number interval=1
*End Step
